data_00000001
_audit_creation_date              2021-02-18
_audit_creation_method            'Materials Studio'
_symmetry_space_group_name_H-M    'P1'
_symmetry_Int_Tables_number       1
_symmetry_cell_setting            triclinic
loop_
_symmetry_equiv_pos_as_xyz
  x,y,z
_cell_length_a                    62.8400
_cell_length_b                    62.8400
_cell_length_c                    62.8400
_cell_angle_alpha                 60.0000
_cell_angle_beta                  60.0000
_cell_angle_gamma                 60.0000
loop_
_atom_site_label
_atom_site_type_symbol
_atom_site_fract_x
_atom_site_fract_y
_atom_site_fract_z
_atom_site_U_iso_or_equiv
_atom_site_adp_type
_atom_site_occupancy
Cr1    Cr    0.34617   0.67964   0.50982   0.00000  Uiso   1.00
Cr2    Cr    0.67812   0.73880   0.90681   0.00000  Uiso   1.00
O3     O     0.70843   0.74449   0.90330   0.00000  Uiso   1.00
O4     O     0.78447   0.81693   0.86079   0.00000  Uiso   1.00
O5     O     0.87363   0.76773   0.67470   0.00000  Uiso   1.00
O6     O     0.84954   0.74091   0.69435   0.00000  Uiso   1.00
O7     O     0.32904   0.63184   0.52217   0.00000  Uiso   1.00
O8     O     0.34919   0.64466   0.53087   0.00000  Uiso   1.00
O9     O     0.28397   0.51356   0.66160   0.00000  Uiso   1.00
O10    O     0.25424   0.51478   0.70070   0.00000  Uiso   1.00
O11    O     0.17238   0.57866   0.62383   0.00000  Uiso   1.00
O12    O     0.15032   0.58230   0.66353   0.00000  Uiso   1.00
O13    O     0.16922   0.67469   0.71255   0.00000  Uiso   1.00
O14    O     0.12727   0.63161   0.66517   0.00000  Uiso   1.00
O15    O     0.24480   0.66279   0.70768   0.00000  Uiso   1.00
O16    O     0.21040   0.65070   0.72783   0.00000  Uiso   1.00
O17    O     0.31695   0.53750   0.69634   0.00000  Uiso   1.00
O18    O     0.27490   0.53459   0.71834   0.00000  Uiso   1.00
C19    C     0.73544   0.77470   0.88856   0.00000  Uiso   1.00
C20    C     0.75077   0.79027   0.87983   0.00000  Uiso   1.00
C21    C     0.80815   0.78565   0.68680   0.00000  Uiso   1.00
C22    C     0.85169   0.76303   0.68897   0.00000  Uiso   1.00
C23    C     0.82921   0.78550   0.68959   0.00000  Uiso   1.00
C24    C     0.83266   0.81015   0.67996   0.00000  Uiso   1.00
C25    C     0.33509   0.58338   0.56030   0.00000  Uiso   1.00
C26    C     0.34303   0.62608   0.53435   0.00000  Uiso   1.00
C27    C     0.34130   0.60387   0.55835   0.00000  Uiso   1.00
C28    C     0.33974   0.60421   0.58160   0.00000  Uiso   1.00
C29    C     0.24327   0.54366   0.64042   0.00000  Uiso   1.00
C30    C     0.26080   0.51606   0.67735   0.00000  Uiso   1.00
C31    C     0.24017   0.52990   0.66792   0.00000  Uiso   1.00
C32    C     0.22101   0.55665   0.63278   0.00000  Uiso   1.00
C33    C     0.17208   0.57410   0.64650   0.00000  Uiso   1.00
C34    C     0.19592   0.56307   0.65231   0.00000  Uiso   1.00
C35    C     0.21685   0.53807   0.68642   0.00000  Uiso   1.00
C36    C     0.19379   0.55243   0.67920   0.00000  Uiso   1.00
C37    C     0.14843   0.66099   0.69801   0.00000  Uiso   1.00
C38    C     0.14359   0.64931   0.68671   0.00000  Uiso   1.00
C39    C     0.27510   0.61632   0.69780   0.00000  Uiso   1.00
C40    C     0.23421   0.64610   0.71651   0.00000  Uiso   1.00
C41    C     0.24922   0.62114   0.71464   0.00000  Uiso   1.00
C42    C     0.29038   0.59115   0.69729   0.00000  Uiso   1.00
C43    C     0.29075   0.54759   0.70735   0.00000  Uiso   1.00
C44    C     0.27858   0.57185   0.71163   0.00000  Uiso   1.00
C45    C     0.23637   0.60297   0.72670   0.00000  Uiso   1.00
C46    C     0.25128   0.57786   0.72530   0.00000  Uiso   1.00
H47    H     0.71548   0.78386   0.88954   0.00000  Uiso   1.00
H48    H     0.74184   0.81090   0.87572   0.00000  Uiso   1.00
H49    H     0.15406   0.64940   0.71505   0.00000  Uiso   1.00
H50    H     0.14111   0.63064   0.69762   0.00000  Uiso   1.00
H51    H     0.80954   0.76906   0.68478   0.00000  Uiso   1.00
H52    H     0.21579   0.60854   0.73658   0.00000  Uiso   1.00
H53    H     0.24216   0.56349   0.73440   0.00000  Uiso   1.00
H54    H     0.28287   0.63195   0.68554   0.00000  Uiso   1.00
H55    H     0.31069   0.58679   0.68610   0.00000  Uiso   1.00
H56    H     0.33061   0.58549   0.54486   0.00000  Uiso   1.00
H57    H     0.33856   0.62151   0.58210   0.00000  Uiso   1.00
H58    H     0.21640   0.53363   0.70542   0.00000  Uiso   1.00
H59    H     0.17499   0.55518   0.69394   0.00000  Uiso   1.00
H60    H     0.26217   0.54383   0.62637   0.00000  Uiso   1.00
H61    H     0.22310   0.56138   0.61311   0.00000  Uiso   1.00
H62    H     0.85172   0.81091   0.67318   0.00000  Uiso   1.00
Cr63   Cr    0.67965   0.34618   0.96436   0.00000  Uiso   1.00
Cr64   Cr    0.73879   0.67812   0.17629   0.00000  Uiso   1.00
O65    O     0.74450   0.70842   0.14378   0.00000  Uiso   1.00
O66    O     0.81694   0.78446   0.03781   0.00000  Uiso   1.00
O67    O     0.76773   0.87362   0.18395   0.00000  Uiso   1.00
O68    O     0.74091   0.84955   0.21519   0.00000  Uiso   1.00
O69    O     0.63183   0.32904   0.01694   0.00000  Uiso   1.00
O70    O     0.64465   0.34918   0.97529   0.00000  Uiso   1.00
O71    O     0.51355   0.28396   0.04087   0.00000  Uiso   1.00
O72    O     0.51477   0.25423   0.03029   0.00000  Uiso   1.00
O73    O     0.57865   0.17238   0.12512   0.00000  Uiso   1.00
O74    O     0.58230   0.15031   0.10384   0.00000  Uiso   1.00
O75    O     0.67468   0.16921   0.94355   0.00000  Uiso   1.00
O76    O     0.63160   0.12727   0.07595   0.00000  Uiso   1.00
O77    O     0.66277   0.24480   0.88474   0.00000  Uiso   1.00
O78    O     0.65070   0.21040   0.91106   0.00000  Uiso   1.00
O79    O     0.53750   0.31693   0.94922   0.00000  Uiso   1.00
O80    O     0.53460   0.27491   0.97216   0.00000  Uiso   1.00
C81    C     0.77469   0.73544   0.10131   0.00000  Uiso   1.00
C82    C     0.79029   0.75076   0.07911   0.00000  Uiso   1.00
C83    C     0.78566   0.80815   0.21938   0.00000  Uiso   1.00
C84    C     0.76303   0.85169   0.19630   0.00000  Uiso   1.00
C85    C     0.78551   0.82920   0.19570   0.00000  Uiso   1.00
C86    C     0.81015   0.83266   0.17720   0.00000  Uiso   1.00
C87    C     0.62608   0.34304   0.99652   0.00000  Uiso   1.00
C88    C     0.60389   0.34129   0.99648   0.00000  Uiso   1.00
C89    C     0.60420   0.33974   0.97446   0.00000  Uiso   1.00
C90    C     0.54366   0.24327   0.07266   0.00000  Uiso   1.00
C91    C     0.51608   0.26082   0.04576   0.00000  Uiso   1.00
C92    C     0.52991   0.24016   0.06202   0.00000  Uiso   1.00
C93    C     0.55665   0.22101   0.08956   0.00000  Uiso   1.00
C94    C     0.57410   0.17209   0.10731   0.00000  Uiso   1.00
C95    C     0.56309   0.19592   0.08870   0.00000  Uiso   1.00
C96    C     0.53805   0.21686   0.05866   0.00000  Uiso   1.00
C97    C     0.55242   0.19379   0.07457   0.00000  Uiso   1.00
C98    C     0.64931   0.14359   0.02039   0.00000  Uiso   1.00
C99    C     0.61632   0.27510   0.91078   0.00000  Uiso   1.00
C100   C     0.64610   0.23421   0.90318   0.00000  Uiso   1.00
C101   C     0.62114   0.24922   0.91499   0.00000  Uiso   1.00
C102   C     0.59115   0.29037   0.92119   0.00000  Uiso   1.00
C103   C     0.54760   0.29076   0.95430   0.00000  Uiso   1.00
C104   C     0.57186   0.27859   0.93791   0.00000  Uiso   1.00
C105   C     0.60299   0.23638   0.93394   0.00000  Uiso   1.00
C106   C     0.57787   0.25129   0.94555   0.00000  Uiso   1.00
H107   H     0.78386   0.71548   0.11113   0.00000  Uiso   1.00
H108   H     0.81089   0.74185   0.07153   0.00000  Uiso   1.00
H109   H     0.63063   0.14111   0.03064   0.00000  Uiso   1.00
H110   H     0.76906   0.80953   0.23663   0.00000  Uiso   1.00
H111   H     0.60853   0.21579   0.93908   0.00000  Uiso   1.00
H112   H     0.56349   0.24215   0.95996   0.00000  Uiso   1.00
H113   H     0.63195   0.28288   0.89963   0.00000  Uiso   1.00
H114   H     0.58678   0.31069   0.91642   0.00000  Uiso   1.00
H115   H     0.62151   0.33856   0.95781   0.00000  Uiso   1.00
H116   H     0.53362   0.21639   0.04457   0.00000  Uiso   1.00
H117   H     0.55520   0.17500   0.07587   0.00000  Uiso   1.00
H118   H     0.54382   0.26216   0.06763   0.00000  Uiso   1.00
H119   H     0.56137   0.22310   0.10240   0.00000  Uiso   1.00
H120   H     0.81090   0.85172   0.16418   0.00000  Uiso   1.00
Cr121  Cr    0.50980   0.96438   0.34616   0.00000  Uiso   1.00
Cr122  Cr    0.90679   0.17629   0.67811   0.00000  Uiso   1.00
O123   O     0.83814   0.80113   0.98149   0.00000  Uiso   1.00
O124   O     0.90331   0.14376   0.70844   0.00000  Uiso   1.00
O125   O     0.86079   0.03781   0.78447   0.00000  Uiso   1.00
O126   O     0.67469   0.18394   0.87362   0.00000  Uiso   1.00
O127   O     0.69435   0.21519   0.84955   0.00000  Uiso   1.00
O128   O     0.52217   0.01694   0.32905   0.00000  Uiso   1.00
O129   O     0.53087   0.97530   0.34918   0.00000  Uiso   1.00
O130   O     0.66162   0.04086   0.28397   0.00000  Uiso   1.00
O131   O     0.70069   0.03028   0.25425   0.00000  Uiso   1.00
O132   O     0.62383   0.12511   0.17239   0.00000  Uiso   1.00
O133   O     0.66354   0.10384   0.15033   0.00000  Uiso   1.00
O134   O     0.71256   0.94354   0.16921   0.00000  Uiso   1.00
O135   O     0.66516   0.07595   0.12727   0.00000  Uiso   1.00
O136   O     0.70769   0.88474   0.24479   0.00000  Uiso   1.00
O137   O     0.72785   0.91105   0.21039   0.00000  Uiso   1.00
O138   O     0.69634   0.94922   0.31695   0.00000  Uiso   1.00
O139   O     0.71833   0.97216   0.27491   0.00000  Uiso   1.00
F140   F     0.51644   0.93304   0.37855   0.00000  Uiso   1.00
C141   C     0.83954   0.79912   0.94187   0.00000  Uiso   1.00
C142   C     0.88855   0.10130   0.73543   0.00000  Uiso   1.00
C143   C     0.87984   0.07913   0.75075   0.00000  Uiso   1.00
C144   C     0.68681   0.21938   0.80815   0.00000  Uiso   1.00
C145   C     0.68897   0.19630   0.85169   0.00000  Uiso   1.00
C146   C     0.68958   0.19569   0.82922   0.00000  Uiso   1.00
C147   C     0.67997   0.17721   0.83267   0.00000  Uiso   1.00
C148   C     0.53436   0.99651   0.34304   0.00000  Uiso   1.00
C149   C     0.55833   0.99648   0.34131   0.00000  Uiso   1.00
C150   C     0.58160   0.97445   0.33975   0.00000  Uiso   1.00
C151   C     0.64040   0.07265   0.24327   0.00000  Uiso   1.00
C152   C     0.67734   0.04577   0.26081   0.00000  Uiso   1.00
C153   C     0.66791   0.06200   0.24017   0.00000  Uiso   1.00
C154   C     0.63278   0.08956   0.22102   0.00000  Uiso   1.00
C155   C     0.64651   0.10732   0.17208   0.00000  Uiso   1.00
C156   C     0.65230   0.08870   0.19591   0.00000  Uiso   1.00
C157   C     0.68641   0.05865   0.21686   0.00000  Uiso   1.00
C158   C     0.67920   0.07458   0.19379   0.00000  Uiso   1.00
C159   C     0.68671   0.02038   0.14358   0.00000  Uiso   1.00
C160   C     0.69780   0.91078   0.27510   0.00000  Uiso   1.00
C161   C     0.71650   0.90319   0.23421   0.00000  Uiso   1.00
C162   C     0.71465   0.91500   0.24922   0.00000  Uiso   1.00
C163   C     0.69729   0.92118   0.29038   0.00000  Uiso   1.00
C164   C     0.70735   0.95429   0.29075   0.00000  Uiso   1.00
C165   C     0.71165   0.93792   0.27857   0.00000  Uiso   1.00
C166   C     0.72670   0.93394   0.23637   0.00000  Uiso   1.00
C167   C     0.72530   0.94555   0.25128   0.00000  Uiso   1.00
H168   H     0.88954   0.11112   0.71547   0.00000  Uiso   1.00
H169   H     0.87573   0.07153   0.74184   0.00000  Uiso   1.00
H170   H     0.69763   0.03064   0.14111   0.00000  Uiso   1.00
H171   H     0.85530   0.78690   0.94945   0.00000  Uiso   1.00
H172   H     0.68476   0.23663   0.80953   0.00000  Uiso   1.00
H173   H     0.73658   0.93909   0.21579   0.00000  Uiso   1.00
H174   H     0.73440   0.95994   0.24216   0.00000  Uiso   1.00
H175   H     0.68552   0.89964   0.28288   0.00000  Uiso   1.00
H176   H     0.68612   0.91641   0.31069   0.00000  Uiso   1.00
H177   H     0.58210   0.95780   0.33856   0.00000  Uiso   1.00
H178   H     0.70540   0.04457   0.21640   0.00000  Uiso   1.00
H179   H     0.69393   0.07588   0.17500   0.00000  Uiso   1.00
H180   H     0.62636   0.06762   0.26218   0.00000  Uiso   1.00
H181   H     0.61311   0.10240   0.22310   0.00000  Uiso   1.00
H182   H     0.67319   0.16417   0.85173   0.00000  Uiso   1.00
Cr183  Cr    0.96438   0.50980   0.67965   0.00000  Uiso   1.00
Cr184  Cr    0.17628   0.90680   0.73880   0.00000  Uiso   1.00
O185   O     0.80113   0.83814   0.87923   0.00000  Uiso   1.00
O186   O     0.14377   0.90330   0.74449   0.00000  Uiso   1.00
O187   O     0.03781   0.86078   0.81694   0.00000  Uiso   1.00
O188   O     0.18393   0.67470   0.76775   0.00000  Uiso   1.00
O189   O     0.21518   0.69436   0.74091   0.00000  Uiso   1.00
O190   O     0.01695   0.52217   0.63184   0.00000  Uiso   1.00
O191   O     0.97529   0.53088   0.64465   0.00000  Uiso   1.00
O192   O     0.04087   0.66160   0.51356   0.00000  Uiso   1.00
O193   O     0.03028   0.70070   0.51479   0.00000  Uiso   1.00
O194   O     0.12512   0.62384   0.57866   0.00000  Uiso   1.00
O195   O     0.10383   0.66355   0.58230   0.00000  Uiso   1.00
O196   O     0.94354   0.71256   0.67468   0.00000  Uiso   1.00
O197   O     0.07594   0.66517   0.63161   0.00000  Uiso   1.00
O198   O     0.88474   0.70769   0.66277   0.00000  Uiso   1.00
O199   O     0.91105   0.72785   0.65069   0.00000  Uiso   1.00
O200   O     0.94922   0.69634   0.53749   0.00000  Uiso   1.00
O201   O     0.97216   0.71833   0.53461   0.00000  Uiso   1.00
C202   C     0.79913   0.83954   0.91946   0.00000  Uiso   1.00
C203   C     0.10129   0.88856   0.77470   0.00000  Uiso   1.00
C204   C     0.07912   0.87985   0.79028   0.00000  Uiso   1.00
C205   C     0.21938   0.68679   0.78566   0.00000  Uiso   1.00
C206   C     0.19631   0.68897   0.76303   0.00000  Uiso   1.00
C207   C     0.19570   0.68958   0.78550   0.00000  Uiso   1.00
C208   C     0.17720   0.67997   0.81016   0.00000  Uiso   1.00
C209   C     0.99651   0.53437   0.62607   0.00000  Uiso   1.00
C210   C     0.99649   0.55834   0.60388   0.00000  Uiso   1.00
C211   C     0.97446   0.58160   0.60421   0.00000  Uiso   1.00
C212   C     0.07265   0.64041   0.54367   0.00000  Uiso   1.00
C213   C     0.04576   0.67735   0.51607   0.00000  Uiso   1.00
C214   C     0.06201   0.66791   0.52991   0.00000  Uiso   1.00
C215   C     0.08954   0.63279   0.55665   0.00000  Uiso   1.00
C216   C     0.10732   0.64649   0.57409   0.00000  Uiso   1.00
C217   C     0.08870   0.65229   0.56308   0.00000  Uiso   1.00
C218   C     0.05866   0.68642   0.53806   0.00000  Uiso   1.00
C219   C     0.07457   0.67922   0.55242   0.00000  Uiso   1.00
C220   C     0.99256   0.69803   0.66100   0.00000  Uiso   1.00
C221   C     0.02039   0.68671   0.64931   0.00000  Uiso   1.00
C222   C     0.91079   0.69780   0.61631   0.00000  Uiso   1.00
C223   C     0.90319   0.71650   0.64609   0.00000  Uiso   1.00
C224   C     0.91500   0.71464   0.62114   0.00000  Uiso   1.00
C225   C     0.92118   0.69729   0.59115   0.00000  Uiso   1.00
C226   C     0.95429   0.70734   0.54761   0.00000  Uiso   1.00
C227   C     0.93791   0.71164   0.57185   0.00000  Uiso   1.00
C228   C     0.93394   0.72670   0.60298   0.00000  Uiso   1.00
C229   C     0.94554   0.72529   0.57788   0.00000  Uiso   1.00
H230   H     0.11112   0.88953   0.78386   0.00000  Uiso   1.00
H231   H     0.07152   0.87573   0.81090   0.00000  Uiso   1.00
H232   H     0.98148   0.71505   0.64938   0.00000  Uiso   1.00
H233   H     0.03064   0.69762   0.63063   0.00000  Uiso   1.00
H234   H     0.78689   0.85530   0.90835   0.00000  Uiso   1.00
H235   H     0.23662   0.68477   0.76907   0.00000  Uiso   1.00
H236   H     0.93909   0.73659   0.60853   0.00000  Uiso   1.00
H237   H     0.95995   0.73441   0.56349   0.00000  Uiso   1.00
H238   H     0.89965   0.68553   0.63194   0.00000  Uiso   1.00
H239   H     0.91641   0.68610   0.58678   0.00000  Uiso   1.00
H240   H     0.95781   0.58211   0.62153   0.00000  Uiso   1.00
H241   H     0.04457   0.70540   0.53363   0.00000  Uiso   1.00
H242   H     0.07587   0.69394   0.55519   0.00000  Uiso   1.00
H243   H     0.06762   0.62637   0.54383   0.00000  Uiso   1.00
H244   H     0.10241   0.61311   0.56139   0.00000  Uiso   1.00
H245   H     0.16418   0.67320   0.81090   0.00000  Uiso   1.00
Cr246  Cr    0.50981   0.34617   0.67965   0.00000  Uiso   1.00
Cr247  Cr    0.90680   0.67812   0.73880   0.00000  Uiso   1.00
O248   O     0.90331   0.70843   0.74449   0.00000  Uiso   1.00
O249   O     0.86079   0.78447   0.81694   0.00000  Uiso   1.00
O250   O     0.67469   0.87361   0.76775   0.00000  Uiso   1.00
O251   O     0.69434   0.84956   0.74091   0.00000  Uiso   1.00
O252   O     0.52219   0.32903   0.63184   0.00000  Uiso   1.00
O253   O     0.53087   0.34918   0.64465   0.00000  Uiso   1.00
O254   O     0.66161   0.28397   0.51356   0.00000  Uiso   1.00
O255   O     0.70071   0.25423   0.51479   0.00000  Uiso   1.00
O256   O     0.62385   0.17238   0.57866   0.00000  Uiso   1.00
O257   O     0.66354   0.15033   0.58230   0.00000  Uiso   1.00
O258   O     0.71255   0.16922   0.67468   0.00000  Uiso   1.00
O259   O     0.66516   0.12727   0.63161   0.00000  Uiso   1.00
O260   O     0.70769   0.24480   0.66277   0.00000  Uiso   1.00
O261   O     0.72784   0.21040   0.65069   0.00000  Uiso   1.00
O262   O     0.69633   0.31695   0.53749   0.00000  Uiso   1.00
O263   O     0.71834   0.27489   0.53461   0.00000  Uiso   1.00
F264   F     0.92201   0.65545   0.76628   0.00000  Uiso   1.00
C265   C     0.88854   0.73544   0.77470   0.00000  Uiso   1.00
C266   C     0.87983   0.75076   0.79028   0.00000  Uiso   1.00
C267   C     0.68680   0.80816   0.78566   0.00000  Uiso   1.00
C268   C     0.68897   0.85168   0.76303   0.00000  Uiso   1.00
C269   C     0.68959   0.82922   0.78550   0.00000  Uiso   1.00
C270   C     0.67997   0.83267   0.81016   0.00000  Uiso   1.00
C271   C     0.56030   0.33508   0.58337   0.00000  Uiso   1.00
C272   C     0.53436   0.34304   0.62607   0.00000  Uiso   1.00
C273   C     0.55835   0.34129   0.60388   0.00000  Uiso   1.00
C274   C     0.58160   0.33973   0.60421   0.00000  Uiso   1.00
C275   C     0.64041   0.24326   0.54367   0.00000  Uiso   1.00
C276   C     0.67735   0.26080   0.51607   0.00000  Uiso   1.00
C277   C     0.66790   0.24017   0.52991   0.00000  Uiso   1.00
C278   C     0.63278   0.22100   0.55665   0.00000  Uiso   1.00
C279   C     0.64650   0.17208   0.57409   0.00000  Uiso   1.00
C280   C     0.65229   0.19593   0.56308   0.00000  Uiso   1.00
C281   C     0.68642   0.21686   0.53806   0.00000  Uiso   1.00
C282   C     0.67922   0.19378   0.55242   0.00000  Uiso   1.00
C283   C     0.69801   0.14842   0.66100   0.00000  Uiso   1.00
C284   C     0.68671   0.14359   0.64931   0.00000  Uiso   1.00
C285   C     0.69781   0.27509   0.61631   0.00000  Uiso   1.00
C286   C     0.71650   0.23422   0.64609   0.00000  Uiso   1.00
C287   C     0.71464   0.24923   0.62114   0.00000  Uiso   1.00
C288   C     0.69729   0.29037   0.59115   0.00000  Uiso   1.00
C289   C     0.70733   0.29075   0.54761   0.00000  Uiso   1.00
C290   C     0.71164   0.27858   0.57185   0.00000  Uiso   1.00
C291   C     0.72670   0.23638   0.60298   0.00000  Uiso   1.00
C292   C     0.72528   0.25128   0.57788   0.00000  Uiso   1.00
H293   H     0.88953   0.71547   0.78386   0.00000  Uiso   1.00
H294   H     0.87573   0.74185   0.81090   0.00000  Uiso   1.00
H295   H     0.71504   0.15408   0.64938   0.00000  Uiso   1.00
H296   H     0.69761   0.14110   0.63063   0.00000  Uiso   1.00
H297   H     0.68476   0.80954   0.76907   0.00000  Uiso   1.00
H298   H     0.73659   0.21578   0.60853   0.00000  Uiso   1.00
H299   H     0.73440   0.24215   0.56349   0.00000  Uiso   1.00
H300   H     0.68553   0.28288   0.63194   0.00000  Uiso   1.00
H301   H     0.68611   0.31070   0.58678   0.00000  Uiso   1.00
H302   H     0.54486   0.33061   0.58550   0.00000  Uiso   1.00
H303   H     0.58210   0.33855   0.62153   0.00000  Uiso   1.00
H304   H     0.70540   0.21638   0.53363   0.00000  Uiso   1.00
H305   H     0.69393   0.17500   0.55519   0.00000  Uiso   1.00
H306   H     0.62636   0.26217   0.54383   0.00000  Uiso   1.00
H307   H     0.61310   0.22310   0.56139   0.00000  Uiso   1.00
H308   H     0.67319   0.85173   0.81090   0.00000  Uiso   1.00
Cr309  Cr    0.96437   0.67966   0.34616   0.00000  Uiso   1.00
Cr310  Cr    0.17629   0.73879   0.67811   0.00000  Uiso   1.00
O311   O     0.14376   0.74449   0.70844   0.00000  Uiso   1.00
O312   O     0.03781   0.81694   0.78447   0.00000  Uiso   1.00
O313   O     0.18394   0.76774   0.87362   0.00000  Uiso   1.00
O314   O     0.21520   0.74091   0.84955   0.00000  Uiso   1.00
O315   O     0.01693   0.63183   0.32905   0.00000  Uiso   1.00
O316   O     0.97530   0.64465   0.34918   0.00000  Uiso   1.00
O317   O     0.04087   0.51355   0.28397   0.00000  Uiso   1.00
O318   O     0.03027   0.51478   0.25425   0.00000  Uiso   1.00
O319   O     0.12512   0.57865   0.17239   0.00000  Uiso   1.00
O320   O     0.10384   0.58229   0.15033   0.00000  Uiso   1.00
O321   O     0.94354   0.67467   0.16921   0.00000  Uiso   1.00
O322   O     0.07595   0.63162   0.12727   0.00000  Uiso   1.00
O323   O     0.88474   0.66278   0.24479   0.00000  Uiso   1.00
O324   O     0.91107   0.65069   0.21039   0.00000  Uiso   1.00
O325   O     0.94921   0.53750   0.31695   0.00000  Uiso   1.00
O326   O     0.97216   0.53459   0.27491   0.00000  Uiso   1.00
C327   C     0.10130   0.77470   0.73543   0.00000  Uiso   1.00
C328   C     0.07912   0.79029   0.75075   0.00000  Uiso   1.00
C329   C     0.21937   0.78567   0.80815   0.00000  Uiso   1.00
C330   C     0.19630   0.76303   0.85169   0.00000  Uiso   1.00
C331   C     0.19570   0.78550   0.82922   0.00000  Uiso   1.00
C332   C     0.17721   0.81015   0.83267   0.00000  Uiso   1.00
C333   C     0.99652   0.62608   0.34304   0.00000  Uiso   1.00
C334   C     0.99647   0.60388   0.34131   0.00000  Uiso   1.00
C335   C     0.97446   0.60419   0.33975   0.00000  Uiso   1.00
C336   C     0.07265   0.54367   0.24327   0.00000  Uiso   1.00
C337   C     0.04577   0.51606   0.26081   0.00000  Uiso   1.00
C338   C     0.06201   0.52991   0.24017   0.00000  Uiso   1.00
C339   C     0.08954   0.55665   0.22102   0.00000  Uiso   1.00
C340   C     0.10732   0.57411   0.17208   0.00000  Uiso   1.00
C341   C     0.08871   0.56307   0.19591   0.00000  Uiso   1.00
C342   C     0.05866   0.53806   0.21686   0.00000  Uiso   1.00
C343   C     0.07457   0.55243   0.19379   0.00000  Uiso   1.00
C344   C     0.02039   0.64932   0.14358   0.00000  Uiso   1.00
C345   C     0.91078   0.61632   0.27510   0.00000  Uiso   1.00
C346   C     0.90318   0.64610   0.23421   0.00000  Uiso   1.00
C347   C     0.91500   0.62114   0.24922   0.00000  Uiso   1.00
C348   C     0.92119   0.59114   0.29038   0.00000  Uiso   1.00
C349   C     0.95430   0.54760   0.29075   0.00000  Uiso   1.00
C350   C     0.93791   0.57187   0.27857   0.00000  Uiso   1.00
C351   C     0.93393   0.60299   0.23637   0.00000  Uiso   1.00
C352   C     0.94554   0.57788   0.25128   0.00000  Uiso   1.00
H353   H     0.11112   0.78387   0.71547   0.00000  Uiso   1.00
H354   H     0.07153   0.81089   0.74184   0.00000  Uiso   1.00
H355   H     0.03064   0.63063   0.14111   0.00000  Uiso   1.00
H356   H     0.23663   0.76906   0.80953   0.00000  Uiso   1.00
H357   H     0.93908   0.60852   0.21579   0.00000  Uiso   1.00
H358   H     0.95995   0.56350   0.24216   0.00000  Uiso   1.00
H359   H     0.89964   0.63195   0.28288   0.00000  Uiso   1.00
H360   H     0.91641   0.58679   0.31069   0.00000  Uiso   1.00
H361   H     0.95781   0.62151   0.33856   0.00000  Uiso   1.00
H362   H     0.04456   0.53363   0.21640   0.00000  Uiso   1.00
H363   H     0.07589   0.55518   0.17500   0.00000  Uiso   1.00
H364   H     0.06763   0.54382   0.26218   0.00000  Uiso   1.00
H365   H     0.10240   0.56138   0.22310   0.00000  Uiso   1.00
H366   H     0.16418   0.81091   0.85173   0.00000  Uiso   1.00
Cr367  Cr    0.34618   0.50981   0.96436   0.00000  Uiso   1.00
Cr368  Cr    0.67811   0.90680   0.17629   0.00000  Uiso   1.00
O369   O     0.98149   0.83815   0.80113   0.00000  Uiso   1.00
O370   O     0.70843   0.90331   0.14378   0.00000  Uiso   1.00
O371   O     0.78447   0.86079   0.03781   0.00000  Uiso   1.00
O372   O     0.87363   0.67469   0.18395   0.00000  Uiso   1.00
O373   O     0.84954   0.69435   0.21519   0.00000  Uiso   1.00
O374   O     0.32904   0.52218   0.01694   0.00000  Uiso   1.00
O375   O     0.34919   0.53088   0.97529   0.00000  Uiso   1.00
O376   O     0.28398   0.66161   0.04087   0.00000  Uiso   1.00
O377   O     0.25424   0.70070   0.03029   0.00000  Uiso   1.00
O378   O     0.17238   0.62384   0.12513   0.00000  Uiso   1.00
O379   O     0.15032   0.66354   0.10384   0.00000  Uiso   1.00
O380   O     0.16922   0.71255   0.94355   0.00000  Uiso   1.00
O381   O     0.12727   0.66517   0.07595   0.00000  Uiso   1.00
O382   O     0.24480   0.70768   0.88474   0.00000  Uiso   1.00
O383   O     0.21040   0.72785   0.91106   0.00000  Uiso   1.00
O384   O     0.31694   0.69635   0.94922   0.00000  Uiso   1.00
O385   O     0.27490   0.71834   0.97216   0.00000  Uiso   1.00
C386   C     0.94186   0.83956   0.79913   0.00000  Uiso   1.00
C387   C     0.73543   0.88856   0.10131   0.00000  Uiso   1.00
C388   C     0.75076   0.87984   0.07911   0.00000  Uiso   1.00
C389   C     0.80816   0.68680   0.21938   0.00000  Uiso   1.00
C390   C     0.85169   0.68896   0.19630   0.00000  Uiso   1.00
C391   C     0.82921   0.68959   0.19570   0.00000  Uiso   1.00
C392   C     0.83267   0.67997   0.17720   0.00000  Uiso   1.00
C393   C     0.34304   0.53437   0.99652   0.00000  Uiso   1.00
C394   C     0.34130   0.55834   0.99648   0.00000  Uiso   1.00
C395   C     0.33975   0.58160   0.97446   0.00000  Uiso   1.00
C396   C     0.24326   0.64041   0.07266   0.00000  Uiso   1.00
C397   C     0.26082   0.67735   0.04576   0.00000  Uiso   1.00
C398   C     0.24016   0.66790   0.06202   0.00000  Uiso   1.00
C399   C     0.22100   0.63280   0.08956   0.00000  Uiso   1.00
C400   C     0.17207   0.64650   0.10731   0.00000  Uiso   1.00
C401   C     0.19592   0.65230   0.08870   0.00000  Uiso   1.00
C402   C     0.21686   0.68642   0.05866   0.00000  Uiso   1.00
C403   C     0.19378   0.67921   0.07457   0.00000  Uiso   1.00
C404   C     0.14359   0.68671   0.02039   0.00000  Uiso   1.00
C405   C     0.27510   0.69780   0.91078   0.00000  Uiso   1.00
C406   C     0.23422   0.71651   0.90318   0.00000  Uiso   1.00
C407   C     0.24922   0.71465   0.91499   0.00000  Uiso   1.00
C408   C     0.29036   0.69729   0.92119   0.00000  Uiso   1.00
C409   C     0.29076   0.70733   0.95430   0.00000  Uiso   1.00
C410   C     0.27858   0.71164   0.93791   0.00000  Uiso   1.00
C411   C     0.23637   0.72671   0.93394   0.00000  Uiso   1.00
C412   C     0.25130   0.72528   0.94555   0.00000  Uiso   1.00
H413   H     0.71547   0.88953   0.11113   0.00000  Uiso   1.00
H414   H     0.74185   0.87572   0.07153   0.00000  Uiso   1.00
H415   H     0.14111   0.69762   0.03064   0.00000  Uiso   1.00
H416   H     0.94945   0.85531   0.78689   0.00000  Uiso   1.00
H417   H     0.80955   0.68476   0.23663   0.00000  Uiso   1.00
H418   H     0.21579   0.73658   0.93908   0.00000  Uiso   1.00
H419   H     0.24215   0.73439   0.95996   0.00000  Uiso   1.00
H420   H     0.28288   0.68553   0.89963   0.00000  Uiso   1.00
H421   H     0.31069   0.68611   0.91642   0.00000  Uiso   1.00
H422   H     0.33855   0.58211   0.95781   0.00000  Uiso   1.00
H423   H     0.21638   0.70541   0.04457   0.00000  Uiso   1.00
H424   H     0.17501   0.69393   0.07587   0.00000  Uiso   1.00
H425   H     0.26217   0.62636   0.06763   0.00000  Uiso   1.00
H426   H     0.22310   0.61312   0.10240   0.00000  Uiso   1.00
H427   H     0.85172   0.67319   0.16418   0.00000  Uiso   1.00
Cr428  Cr    0.67965   0.96436   0.50982   0.00000  Uiso   1.00
Cr429  Cr    0.73879   0.17628   0.90681   0.00000  Uiso   1.00
O430   O     0.87924   0.80112   0.83814   0.00000  Uiso   1.00
O431   O     0.74450   0.14376   0.90330   0.00000  Uiso   1.00
O432   O     0.81693   0.03782   0.86079   0.00000  Uiso   1.00
O433   O     0.76773   0.18395   0.67470   0.00000  Uiso   1.00
O434   O     0.74090   0.21520   0.69435   0.00000  Uiso   1.00
O435   O     0.63185   0.01693   0.52217   0.00000  Uiso   1.00
O436   O     0.64465   0.97528   0.53087   0.00000  Uiso   1.00
O437   O     0.51355   0.04087   0.66160   0.00000  Uiso   1.00
O438   O     0.51478   0.03028   0.70070   0.00000  Uiso   1.00
O439   O     0.57866   0.12513   0.62383   0.00000  Uiso   1.00
O440   O     0.58230   0.10384   0.66353   0.00000  Uiso   1.00
O441   O     0.67468   0.94353   0.71255   0.00000  Uiso   1.00
O442   O     0.63160   0.07596   0.66517   0.00000  Uiso   1.00
O443   O     0.66278   0.88474   0.70768   0.00000  Uiso   1.00
O444   O     0.65070   0.91106   0.72783   0.00000  Uiso   1.00
O445   O     0.53751   0.94921   0.69634   0.00000  Uiso   1.00
O446   O     0.53460   0.97216   0.71834   0.00000  Uiso   1.00
F447   F     0.76628   0.15625   0.92201   0.00000  Uiso   1.00
F448   F     0.67195   0.93303   0.51644   0.00000  Uiso   1.00
C449   C     0.91944   0.79913   0.83955   0.00000  Uiso   1.00
C450   C     0.77469   0.10131   0.88856   0.00000  Uiso   1.00
C451   C     0.79028   0.07912   0.87983   0.00000  Uiso   1.00
C452   C     0.78565   0.21939   0.68680   0.00000  Uiso   1.00
C453   C     0.76303   0.19630   0.68897   0.00000  Uiso   1.00
C454   C     0.78551   0.19569   0.68959   0.00000  Uiso   1.00
C455   C     0.81014   0.17722   0.67996   0.00000  Uiso   1.00
C456   C     0.62608   0.99652   0.53435   0.00000  Uiso   1.00
C457   C     0.60387   0.99648   0.55835   0.00000  Uiso   1.00
C458   C     0.60420   0.97445   0.58160   0.00000  Uiso   1.00
C459   C     0.54366   0.07265   0.64042   0.00000  Uiso   1.00
C460   C     0.51607   0.04577   0.67735   0.00000  Uiso   1.00
C461   C     0.52991   0.06201   0.66792   0.00000  Uiso   1.00
C462   C     0.55666   0.08955   0.63278   0.00000  Uiso   1.00
C463   C     0.57410   0.10732   0.64650   0.00000  Uiso   1.00
C464   C     0.56308   0.08870   0.65231   0.00000  Uiso   1.00
C465   C     0.53806   0.05866   0.68642   0.00000  Uiso   1.00
C466   C     0.55243   0.07457   0.67920   0.00000  Uiso   1.00
C467   C     0.66100   0.99255   0.69801   0.00000  Uiso   1.00
C468   C     0.64931   0.02039   0.68671   0.00000  Uiso   1.00
C469   C     0.61632   0.91078   0.69780   0.00000  Uiso   1.00
C470   C     0.64610   0.90317   0.71651   0.00000  Uiso   1.00
C471   C     0.62115   0.91500   0.71464   0.00000  Uiso   1.00
C472   C     0.59114   0.92119   0.69729   0.00000  Uiso   1.00
C473   C     0.54760   0.95429   0.70735   0.00000  Uiso   1.00
C474   C     0.57186   0.93792   0.71163   0.00000  Uiso   1.00
C475   C     0.60298   0.93393   0.72670   0.00000  Uiso   1.00
C476   C     0.57786   0.94555   0.72530   0.00000  Uiso   1.00
H477   H     0.78387   0.11112   0.88954   0.00000  Uiso   1.00
H478   H     0.81090   0.07152   0.87572   0.00000  Uiso   1.00
H479   H     0.64939   0.98149   0.71505   0.00000  Uiso   1.00
H480   H     0.63064   0.03063   0.69762   0.00000  Uiso   1.00
H481   H     0.90835   0.78689   0.85531   0.00000  Uiso   1.00
H482   H     0.76905   0.23664   0.68478   0.00000  Uiso   1.00
H483   H     0.60854   0.93909   0.73658   0.00000  Uiso   1.00
H484   H     0.56350   0.95996   0.73440   0.00000  Uiso   1.00
H485   H     0.63195   0.89964   0.68554   0.00000  Uiso   1.00
H486   H     0.58679   0.91641   0.68610   0.00000  Uiso   1.00
H487   H     0.62152   0.95780   0.58211   0.00000  Uiso   1.00
H488   H     0.53362   0.04457   0.70542   0.00000  Uiso   1.00
H489   H     0.55518   0.07588   0.69394   0.00000  Uiso   1.00
H490   H     0.54382   0.06763   0.62637   0.00000  Uiso   1.00
H491   H     0.56139   0.10240   0.61311   0.00000  Uiso   1.00
H492   H     0.81090   0.16419   0.67318   0.00000  Uiso   1.00
Cr493  Cr    0.67965   0.50981   0.34616   0.00000  Uiso   1.00
Cr494  Cr    0.73880   0.90680   0.67811   0.00000  Uiso   1.00
O495   O     0.74448   0.90330   0.70844   0.00000  Uiso   1.00
O496   O     0.81694   0.86078   0.78447   0.00000  Uiso   1.00
O497   O     0.76774   0.67471   0.87362   0.00000  Uiso   1.00
O498   O     0.74091   0.69435   0.84955   0.00000  Uiso   1.00
O499   O     0.63184   0.52217   0.32905   0.00000  Uiso   1.00
O500   O     0.64465   0.53087   0.34918   0.00000  Uiso   1.00
O501   O     0.51354   0.66161   0.28397   0.00000  Uiso   1.00
O502   O     0.51478   0.70070   0.25425   0.00000  Uiso   1.00
O503   O     0.57865   0.62384   0.17239   0.00000  Uiso   1.00
O504   O     0.58230   0.66353   0.15033   0.00000  Uiso   1.00
O505   O     0.67468   0.71256   0.16921   0.00000  Uiso   1.00
O506   O     0.63161   0.66517   0.12727   0.00000  Uiso   1.00
O507   O     0.66279   0.70767   0.24479   0.00000  Uiso   1.00
O508   O     0.65070   0.72783   0.21039   0.00000  Uiso   1.00
O509   O     0.53750   0.69634   0.31695   0.00000  Uiso   1.00
O510   O     0.53460   0.71835   0.27491   0.00000  Uiso   1.00
F511   F     0.76628   0.92202   0.65545   0.00000  Uiso   1.00
C512   C     0.77470   0.88855   0.73543   0.00000  Uiso   1.00
C513   C     0.79027   0.87985   0.75075   0.00000  Uiso   1.00
C514   C     0.78565   0.68681   0.80815   0.00000  Uiso   1.00
C515   C     0.76303   0.68896   0.85169   0.00000  Uiso   1.00
C516   C     0.78551   0.68958   0.82922   0.00000  Uiso   1.00
C517   C     0.81015   0.67998   0.83267   0.00000  Uiso   1.00
C518   C     0.58337   0.56031   0.33509   0.00000  Uiso   1.00
C519   C     0.62609   0.53435   0.34304   0.00000  Uiso   1.00
C520   C     0.60387   0.55834   0.34131   0.00000  Uiso   1.00
C521   C     0.60419   0.58159   0.33975   0.00000  Uiso   1.00
C522   C     0.54366   0.64041   0.24327   0.00000  Uiso   1.00
C523   C     0.51607   0.67734   0.26081   0.00000  Uiso   1.00
C524   C     0.52990   0.66791   0.24017   0.00000  Uiso   1.00
C525   C     0.55665   0.63278   0.22102   0.00000  Uiso   1.00
C526   C     0.57410   0.64651   0.17208   0.00000  Uiso   1.00
C527   C     0.56308   0.65230   0.19591   0.00000  Uiso   1.00
C528   C     0.53807   0.68641   0.21686   0.00000  Uiso   1.00
C529   C     0.55242   0.67922   0.19379   0.00000  Uiso   1.00
C530   C     0.66100   0.69802   0.14842   0.00000  Uiso   1.00
C531   C     0.64930   0.68671   0.14358   0.00000  Uiso   1.00
C532   C     0.61632   0.69779   0.27510   0.00000  Uiso   1.00
C533   C     0.64610   0.71649   0.23421   0.00000  Uiso   1.00
C534   C     0.62115   0.71463   0.24922   0.00000  Uiso   1.00
C535   C     0.59114   0.69729   0.29038   0.00000  Uiso   1.00
C536   C     0.54759   0.70735   0.29075   0.00000  Uiso   1.00
C537   C     0.57186   0.71165   0.27857   0.00000  Uiso   1.00
C538   C     0.60298   0.72671   0.23637   0.00000  Uiso   1.00
C539   C     0.57787   0.72528   0.25128   0.00000  Uiso   1.00
H540   H     0.78386   0.88953   0.71547   0.00000  Uiso   1.00
H541   H     0.81090   0.87572   0.74184   0.00000  Uiso   1.00
H542   H     0.64939   0.71504   0.15407   0.00000  Uiso   1.00
H543   H     0.63064   0.69762   0.14111   0.00000  Uiso   1.00
H544   H     0.76906   0.68477   0.80953   0.00000  Uiso   1.00
H545   H     0.60854   0.73658   0.21579   0.00000  Uiso   1.00
H546   H     0.56349   0.73439   0.24216   0.00000  Uiso   1.00
H547   H     0.63195   0.68553   0.28288   0.00000  Uiso   1.00
H548   H     0.58678   0.68611   0.31069   0.00000  Uiso   1.00
H549   H     0.58549   0.54488   0.33061   0.00000  Uiso   1.00
H550   H     0.62153   0.58210   0.33856   0.00000  Uiso   1.00
H551   H     0.53362   0.70542   0.21640   0.00000  Uiso   1.00
H552   H     0.55519   0.69393   0.17500   0.00000  Uiso   1.00
H553   H     0.54383   0.62636   0.26218   0.00000  Uiso   1.00
H554   H     0.56138   0.61311   0.22310   0.00000  Uiso   1.00
H555   H     0.81091   0.67318   0.85173   0.00000  Uiso   1.00
Cr556  Cr    0.34616   0.96437   0.67965   0.00000  Uiso   1.00
Cr557  Cr    0.67812   0.17627   0.73880   0.00000  Uiso   1.00
O558   O     0.70843   0.14376   0.74449   0.00000  Uiso   1.00
O559   O     0.78447   0.03781   0.81694   0.00000  Uiso   1.00
O560   O     0.87362   0.18393   0.76775   0.00000  Uiso   1.00
O561   O     0.84955   0.21519   0.74091   0.00000  Uiso   1.00
O562   O     0.32903   0.01694   0.63184   0.00000  Uiso   1.00
O563   O     0.34918   0.97528   0.64465   0.00000  Uiso   1.00
O564   O     0.28398   0.04086   0.51356   0.00000  Uiso   1.00
O565   O     0.25424   0.03027   0.51479   0.00000  Uiso   1.00
O566   O     0.17238   0.12512   0.57866   0.00000  Uiso   1.00
O567   O     0.15033   0.10384   0.58230   0.00000  Uiso   1.00
O568   O     0.16922   0.94353   0.67468   0.00000  Uiso   1.00
O569   O     0.12727   0.07595   0.63161   0.00000  Uiso   1.00
O570   O     0.24480   0.88473   0.66277   0.00000  Uiso   1.00
O571   O     0.21040   0.91107   0.65069   0.00000  Uiso   1.00
O572   O     0.31694   0.94922   0.53749   0.00000  Uiso   1.00
O573   O     0.27489   0.97216   0.53461   0.00000  Uiso   1.00
F574   F     0.65544   0.15625   0.76628   0.00000  Uiso   1.00
C575   C     0.73544   0.10130   0.77470   0.00000  Uiso   1.00
C576   C     0.75075   0.07913   0.79028   0.00000  Uiso   1.00
C577   C     0.80816   0.21938   0.78566   0.00000  Uiso   1.00
C578   C     0.85168   0.19631   0.76303   0.00000  Uiso   1.00
C579   C     0.82922   0.19569   0.78550   0.00000  Uiso   1.00
C580   C     0.83267   0.17720   0.81016   0.00000  Uiso   1.00
C581   C     0.34305   0.99652   0.62607   0.00000  Uiso   1.00
C582   C     0.34129   0.99648   0.60388   0.00000  Uiso   1.00
C583   C     0.33975   0.97445   0.60421   0.00000  Uiso   1.00
C584   C     0.24327   0.07265   0.54367   0.00000  Uiso   1.00
C585   C     0.26080   0.04578   0.51607   0.00000  Uiso   1.00
C586   C     0.24017   0.06200   0.52991   0.00000  Uiso   1.00
C587   C     0.22101   0.08955   0.55665   0.00000  Uiso   1.00
C588   C     0.17208   0.10733   0.57409   0.00000  Uiso   1.00
C589   C     0.19591   0.08871   0.56308   0.00000  Uiso   1.00
C590   C     0.21685   0.05866   0.53806   0.00000  Uiso   1.00
C591   C     0.19379   0.07456   0.55242   0.00000  Uiso   1.00
C592   C     0.14359   0.02038   0.64931   0.00000  Uiso   1.00
C593   C     0.27511   0.91079   0.61631   0.00000  Uiso   1.00
C594   C     0.23423   0.90317   0.64609   0.00000  Uiso   1.00
C595   C     0.24921   0.91500   0.62114   0.00000  Uiso   1.00
C596   C     0.29036   0.92120   0.59115   0.00000  Uiso   1.00
C597   C     0.29075   0.95430   0.54761   0.00000  Uiso   1.00
C598   C     0.27858   0.93792   0.57185   0.00000  Uiso   1.00
C599   C     0.23638   0.93394   0.60298   0.00000  Uiso   1.00
C600   C     0.25129   0.94554   0.57788   0.00000  Uiso   1.00
H601   H     0.71548   0.11112   0.78386   0.00000  Uiso   1.00
H602   H     0.74185   0.07152   0.81090   0.00000  Uiso   1.00
H603   H     0.14112   0.03063   0.63063   0.00000  Uiso   1.00
H604   H     0.80953   0.23663   0.76907   0.00000  Uiso   1.00
H605   H     0.21578   0.93909   0.60853   0.00000  Uiso   1.00
H606   H     0.24215   0.95994   0.56349   0.00000  Uiso   1.00
H607   H     0.28289   0.89964   0.63194   0.00000  Uiso   1.00
H608   H     0.31069   0.91640   0.58678   0.00000  Uiso   1.00
H609   H     0.33857   0.95780   0.62153   0.00000  Uiso   1.00
H610   H     0.21639   0.04457   0.53363   0.00000  Uiso   1.00
H611   H     0.17500   0.07588   0.55519   0.00000  Uiso   1.00
H612   H     0.26217   0.06764   0.54383   0.00000  Uiso   1.00
H613   H     0.22311   0.10239   0.56139   0.00000  Uiso   1.00
H614   H     0.85172   0.16418   0.81090   0.00000  Uiso   1.00
Cr615  Cr    0.96437   0.34617   0.50982   0.00000  Uiso   1.00
Cr616  Cr    0.17627   0.67812   0.90681   0.00000  Uiso   1.00
O617   O     0.80113   0.98149   0.83814   0.00000  Uiso   1.00
O618   O     0.14377   0.70844   0.90330   0.00000  Uiso   1.00
O619   O     0.03781   0.78448   0.86079   0.00000  Uiso   1.00
O620   O     0.18394   0.87363   0.67470   0.00000  Uiso   1.00
O621   O     0.21519   0.84955   0.69435   0.00000  Uiso   1.00
O622   O     0.01695   0.32904   0.52217   0.00000  Uiso   1.00
O623   O     0.97530   0.34918   0.53087   0.00000  Uiso   1.00
O624   O     0.04086   0.28398   0.66160   0.00000  Uiso   1.00
O625   O     0.03028   0.25424   0.70070   0.00000  Uiso   1.00
O626   O     0.12512   0.17239   0.62383   0.00000  Uiso   1.00
O627   O     0.10385   0.15032   0.66353   0.00000  Uiso   1.00
O628   O     0.94354   0.16922   0.71255   0.00000  Uiso   1.00
O629   O     0.07595   0.12726   0.66517   0.00000  Uiso   1.00
O630   O     0.88474   0.24480   0.70768   0.00000  Uiso   1.00
O631   O     0.91106   0.21040   0.72783   0.00000  Uiso   1.00
O632   O     0.94922   0.31694   0.69634   0.00000  Uiso   1.00
O633   O     0.97216   0.27490   0.71834   0.00000  Uiso   1.00
C634   C     0.79912   0.94187   0.83955   0.00000  Uiso   1.00
C635   C     0.10130   0.73544   0.88856   0.00000  Uiso   1.00
C636   C     0.07911   0.75077   0.87983   0.00000  Uiso   1.00
C637   C     0.21937   0.80816   0.68680   0.00000  Uiso   1.00
C638   C     0.19632   0.85169   0.68897   0.00000  Uiso   1.00
C639   C     0.19569   0.82921   0.68959   0.00000  Uiso   1.00
C640   C     0.17721   0.83268   0.67996   0.00000  Uiso   1.00
C641   C     0.99652   0.34304   0.53435   0.00000  Uiso   1.00
C642   C     0.99647   0.34129   0.55835   0.00000  Uiso   1.00
C643   C     0.97446   0.33973   0.58160   0.00000  Uiso   1.00
C644   C     0.07266   0.24326   0.64042   0.00000  Uiso   1.00
C645   C     0.04577   0.26081   0.67735   0.00000  Uiso   1.00
C646   C     0.06200   0.24016   0.66792   0.00000  Uiso   1.00
C647   C     0.08955   0.22102   0.63278   0.00000  Uiso   1.00
C648   C     0.10733   0.17207   0.64650   0.00000  Uiso   1.00
C649   C     0.08870   0.19592   0.65231   0.00000  Uiso   1.00
C650   C     0.05865   0.21687   0.68642   0.00000  Uiso   1.00
C651   C     0.07458   0.19379   0.67920   0.00000  Uiso   1.00
C652   C     0.02039   0.14358   0.68671   0.00000  Uiso   1.00
C653   C     0.91078   0.27511   0.69780   0.00000  Uiso   1.00
C654   C     0.90317   0.23422   0.71651   0.00000  Uiso   1.00
C655   C     0.91500   0.24923   0.71464   0.00000  Uiso   1.00
C656   C     0.92119   0.29036   0.69729   0.00000  Uiso   1.00
C657   C     0.95429   0.29076   0.70735   0.00000  Uiso   1.00
C658   C     0.93791   0.27858   0.71163   0.00000  Uiso   1.00
C659   C     0.93394   0.23639   0.72670   0.00000  Uiso   1.00
C660   C     0.94554   0.25128   0.72530   0.00000  Uiso   1.00
H661   H     0.11112   0.71547   0.88954   0.00000  Uiso   1.00
H662   H     0.07153   0.74185   0.87572   0.00000  Uiso   1.00
H663   H     0.03064   0.14110   0.69762   0.00000  Uiso   1.00
H664   H     0.78688   0.94944   0.85531   0.00000  Uiso   1.00
H665   H     0.23663   0.80954   0.68478   0.00000  Uiso   1.00
H666   H     0.93909   0.21578   0.73658   0.00000  Uiso   1.00
H667   H     0.95995   0.24215   0.73440   0.00000  Uiso   1.00
H668   H     0.89964   0.28287   0.68554   0.00000  Uiso   1.00
H669   H     0.91641   0.31070   0.68610   0.00000  Uiso   1.00
H670   H     0.95781   0.33855   0.58211   0.00000  Uiso   1.00
H671   H     0.04457   0.21640   0.70542   0.00000  Uiso   1.00
H672   H     0.07587   0.17500   0.69394   0.00000  Uiso   1.00
H673   H     0.06764   0.26217   0.62637   0.00000  Uiso   1.00
H674   H     0.10240   0.22311   0.61311   0.00000  Uiso   1.00
H675   H     0.16418   0.85173   0.67318   0.00000  Uiso   1.00
Cr676  Cr    0.50981   0.67965   0.96436   0.00000  Uiso   1.00
Cr677  Cr    0.90680   0.73880   0.17629   0.00000  Uiso   1.00
O678   O     0.83815   0.87922   0.80113   0.00000  Uiso   1.00
O679   O     0.90331   0.74449   0.14378   0.00000  Uiso   1.00
O680   O     0.86079   0.81693   0.03781   0.00000  Uiso   1.00
O681   O     0.67470   0.76774   0.18395   0.00000  Uiso   1.00
O682   O     0.69434   0.74092   0.21519   0.00000  Uiso   1.00
O683   O     0.52217   0.63185   0.01694   0.00000  Uiso   1.00
O684   O     0.53086   0.64466   0.97529   0.00000  Uiso   1.00
O685   O     0.66161   0.51354   0.04087   0.00000  Uiso   1.00
O686   O     0.70070   0.51478   0.03029   0.00000  Uiso   1.00
O687   O     0.62384   0.57866   0.12513   0.00000  Uiso   1.00
O688   O     0.66353   0.58230   0.10384   0.00000  Uiso   1.00
O689   O     0.71255   0.67468   0.94355   0.00000  Uiso   1.00
O690   O     0.66517   0.63162   0.07595   0.00000  Uiso   1.00
O691   O     0.70767   0.66279   0.88474   0.00000  Uiso   1.00
O692   O     0.72784   0.65071   0.91106   0.00000  Uiso   1.00
O693   O     0.69635   0.53749   0.94922   0.00000  Uiso   1.00
O694   O     0.71834   0.53461   0.97216   0.00000  Uiso   1.00
F695   F     0.51644   0.67195   0.93304   0.00000  Uiso   1.00
C696   C     0.83955   0.91945   0.79913   0.00000  Uiso   1.00
C697   C     0.88856   0.77469   0.10131   0.00000  Uiso   1.00
C698   C     0.87985   0.79028   0.07911   0.00000  Uiso   1.00
C699   C     0.68680   0.78566   0.21938   0.00000  Uiso   1.00
C700   C     0.68897   0.76303   0.19630   0.00000  Uiso   1.00
C701   C     0.68959   0.78550   0.19570   0.00000  Uiso   1.00
C702   C     0.67997   0.81015   0.17720   0.00000  Uiso   1.00
C703   C     0.53436   0.62608   0.99652   0.00000  Uiso   1.00
C704   C     0.55834   0.60388   0.99648   0.00000  Uiso   1.00
C705   C     0.58160   0.60420   0.97446   0.00000  Uiso   1.00
C706   C     0.64041   0.54367   0.07266   0.00000  Uiso   1.00
C707   C     0.67736   0.51607   0.04576   0.00000  Uiso   1.00
C708   C     0.66790   0.52991   0.06202   0.00000  Uiso   1.00
C709   C     0.63279   0.55665   0.08956   0.00000  Uiso   1.00
C710   C     0.64650   0.57410   0.10731   0.00000  Uiso   1.00
C711   C     0.65230   0.56307   0.08870   0.00000  Uiso   1.00
C712   C     0.68641   0.53806   0.05866   0.00000  Uiso   1.00
C713   C     0.67922   0.55242   0.07457   0.00000  Uiso   1.00
C714   C     0.69801   0.66101   0.99256   0.00000  Uiso   1.00
C715   C     0.68671   0.64931   0.02039   0.00000  Uiso   1.00
C716   C     0.69779   0.61633   0.91078   0.00000  Uiso   1.00
C717   C     0.71650   0.64609   0.90318   0.00000  Uiso   1.00
C718   C     0.71464   0.62113   0.91499   0.00000  Uiso   1.00
C719   C     0.69728   0.59116   0.92119   0.00000  Uiso   1.00
C720   C     0.70734   0.54759   0.95430   0.00000  Uiso   1.00
C721   C     0.71165   0.57185   0.93791   0.00000  Uiso   1.00
C722   C     0.72670   0.60299   0.93394   0.00000  Uiso   1.00
C723   C     0.72529   0.57787   0.94555   0.00000  Uiso   1.00
H724   H     0.88953   0.78387   0.11113   0.00000  Uiso   1.00
H725   H     0.87572   0.81089   0.07153   0.00000  Uiso   1.00
H726   H     0.71503   0.64939   0.98149   0.00000  Uiso   1.00
H727   H     0.69762   0.63062   0.03064   0.00000  Uiso   1.00
H728   H     0.85531   0.90835   0.78689   0.00000  Uiso   1.00
H729   H     0.68477   0.76907   0.23663   0.00000  Uiso   1.00
H730   H     0.73659   0.60853   0.93908   0.00000  Uiso   1.00
H731   H     0.73439   0.56350   0.95996   0.00000  Uiso   1.00
H732   H     0.68553   0.63195   0.89963   0.00000  Uiso   1.00
H733   H     0.68610   0.58678   0.91642   0.00000  Uiso   1.00
H734   H     0.58210   0.62152   0.95781   0.00000  Uiso   1.00
H735   H     0.70541   0.53363   0.04457   0.00000  Uiso   1.00
H736   H     0.69394   0.55518   0.07587   0.00000  Uiso   1.00
H737   H     0.62637   0.54382   0.06763   0.00000  Uiso   1.00
H738   H     0.61312   0.56137   0.10240   0.00000  Uiso   1.00
H739   H     0.67318   0.81091   0.16418   0.00000  Uiso   1.00
Cr740  Cr    0.65382   0.32035   0.03563   0.00000  Uiso   1.00
Cr741  Cr    0.32188   0.26119   0.82372   0.00000  Uiso   1.00
O742   O     0.29157   0.25550   0.85623   0.00000  Uiso   1.00
O743   O     0.21553   0.18306   0.96220   0.00000  Uiso   1.00
O744   O     0.12639   0.23225   0.81606   0.00000  Uiso   1.00
O745   O     0.15046   0.25910   0.78480   0.00000  Uiso   1.00
O746   O     0.67095   0.36817   0.98305   0.00000  Uiso   1.00
O747   O     0.65080   0.35535   0.02471   0.00000  Uiso   1.00
O748   O     0.71602   0.48645   0.95914   0.00000  Uiso   1.00
O749   O     0.74577   0.48522   0.96972   0.00000  Uiso   1.00
O750   O     0.82762   0.42133   0.87488   0.00000  Uiso   1.00
O751   O     0.84968   0.41769   0.89617   0.00000  Uiso   1.00
O752   O     0.83079   0.32531   0.05646   0.00000  Uiso   1.00
O753   O     0.87273   0.36839   0.92406   0.00000  Uiso   1.00
O754   O     0.75520   0.33722   0.11526   0.00000  Uiso   1.00
O755   O     0.78960   0.34931   0.08893   0.00000  Uiso   1.00
O756   O     0.68307   0.46250   0.05077   0.00000  Uiso   1.00
O757   O     0.72510   0.46541   0.02783   0.00000  Uiso   1.00
F758   F     0.62143   0.32804   0.06697   0.00000  Uiso   1.00
C759   C     0.26456   0.22530   0.89870   0.00000  Uiso   1.00
C760   C     0.24925   0.20972   0.92088   0.00000  Uiso   1.00
C761   C     0.19185   0.21434   0.78061   0.00000  Uiso   1.00
C762   C     0.14831   0.23697   0.80369   0.00000  Uiso   1.00
C763   C     0.17079   0.21449   0.80431   0.00000  Uiso   1.00
C764   C     0.16733   0.18986   0.82278   0.00000  Uiso   1.00
C765   C     0.65696   0.37391   0.00349   0.00000  Uiso   1.00
C766   C     0.65869   0.39611   0.00353   0.00000  Uiso   1.00
C767   C     0.66026   0.39580   0.02553   0.00000  Uiso   1.00
C768   C     0.75673   0.45632   0.92735   0.00000  Uiso   1.00
C769   C     0.73918   0.48393   0.95423   0.00000  Uiso   1.00
C770   C     0.75982   0.47008   0.93799   0.00000  Uiso   1.00
C771   C     0.77899   0.44334   0.91045   0.00000  Uiso   1.00
C772   C     0.82792   0.42589   0.89268   0.00000  Uiso   1.00
C773   C     0.80408   0.43693   0.91129   0.00000  Uiso   1.00
C774   C     0.78313   0.46193   0.94134   0.00000  Uiso   1.00
C775   C     0.80621   0.44758   0.92542   0.00000  Uiso   1.00
C776   C     0.85642   0.35069   0.97960   0.00000  Uiso   1.00
C777   C     0.72489   0.38368   0.08922   0.00000  Uiso   1.00
C778   C     0.76577   0.35390   0.09683   0.00000  Uiso   1.00
C779   C     0.75077   0.37886   0.08500   0.00000  Uiso   1.00
C780   C     0.70962   0.40885   0.07882   0.00000  Uiso   1.00
C781   C     0.70924   0.45240   0.04570   0.00000  Uiso   1.00
C782   C     0.72143   0.42814   0.06208   0.00000  Uiso   1.00
C783   C     0.76363   0.39701   0.06605   0.00000  Uiso   1.00
C784   C     0.74871   0.42212   0.05445   0.00000  Uiso   1.00
H785   H     0.28452   0.21614   0.88888   0.00000  Uiso   1.00
H786   H     0.25814   0.18910   0.92848   0.00000  Uiso   1.00
H787   H     0.85888   0.36937   0.96937   0.00000  Uiso   1.00
H788   H     0.19047   0.23095   0.76336   0.00000  Uiso   1.00
H789   H     0.78420   0.39147   0.06091   0.00000  Uiso   1.00
H790   H     0.75784   0.43649   0.04005   0.00000  Uiso   1.00
H791   H     0.71712   0.36805   0.10035   0.00000  Uiso   1.00
H792   H     0.68930   0.41322   0.08359   0.00000  Uiso   1.00
H793   H     0.66144   0.37847   0.04220   0.00000  Uiso   1.00
H794   H     0.78361   0.46637   0.95543   0.00000  Uiso   1.00
H795   H     0.82500   0.44481   0.92411   0.00000  Uiso   1.00
H796   H     0.73782   0.45617   0.93238   0.00000  Uiso   1.00
H797   H     0.77690   0.43863   0.89759   0.00000  Uiso   1.00
H798   H     0.14827   0.18910   0.83582   0.00000  Uiso   1.00
Cr799  Cr    0.32035   0.65382   0.49019   0.00000  Uiso   1.00
Cr800  Cr    0.26120   0.32189   0.09320   0.00000  Uiso   1.00
O801   O     0.25551   0.29156   0.09669   0.00000  Uiso   1.00
O802   O     0.18306   0.21553   0.13922   0.00000  Uiso   1.00
O803   O     0.23226   0.12638   0.32531   0.00000  Uiso   1.00
O804   O     0.25909   0.15044   0.30566   0.00000  Uiso   1.00
O805   O     0.36817   0.67096   0.47781   0.00000  Uiso   1.00
O806   O     0.35536   0.65081   0.46912   0.00000  Uiso   1.00
O807   O     0.48645   0.71602   0.33838   0.00000  Uiso   1.00
O808   O     0.48522   0.74575   0.29931   0.00000  Uiso   1.00
O809   O     0.42134   0.82763   0.37616   0.00000  Uiso   1.00
O810   O     0.41770   0.84968   0.33645   0.00000  Uiso   1.00
O811   O     0.32531   0.83078   0.28744   0.00000  Uiso   1.00
O812   O     0.36838   0.87273   0.33484   0.00000  Uiso   1.00
O813   O     0.33721   0.75521   0.29233   0.00000  Uiso   1.00
O814   O     0.34929   0.78960   0.27216   0.00000  Uiso   1.00
O815   O     0.46250   0.68306   0.30365   0.00000  Uiso   1.00
O816   O     0.46540   0.72510   0.28167   0.00000  Uiso   1.00
F817   F     0.32804   0.62143   0.48356   0.00000  Uiso   1.00
C818   C     0.22530   0.26455   0.11144   0.00000  Uiso   1.00
C819   C     0.20971   0.24925   0.12016   0.00000  Uiso   1.00
C820   C     0.21433   0.19184   0.31320   0.00000  Uiso   1.00
C821   C     0.23698   0.14830   0.31104   0.00000  Uiso   1.00
C822   C     0.21450   0.17078   0.31042   0.00000  Uiso   1.00
C823   C     0.18985   0.16734   0.32002   0.00000  Uiso   1.00
C824   C     0.41661   0.66492   0.43969   0.00000  Uiso   1.00
C825   C     0.37392   0.65696   0.46563   0.00000  Uiso   1.00
C826   C     0.39611   0.65870   0.44166   0.00000  Uiso   1.00
C827   C     0.39579   0.66026   0.41841   0.00000  Uiso   1.00
C828   C     0.45632   0.75673   0.35959   0.00000  Uiso   1.00
C829   C     0.48393   0.73918   0.32266   0.00000  Uiso   1.00
C830   C     0.47008   0.75983   0.33209   0.00000  Uiso   1.00
C831   C     0.44335   0.77899   0.36721   0.00000  Uiso   1.00
C832   C     0.42590   0.82792   0.35351   0.00000  Uiso   1.00
C833   C     0.43692   0.80408   0.34770   0.00000  Uiso   1.00
C834   C     0.46194   0.78315   0.31357   0.00000  Uiso   1.00
C835   C     0.44758   0.80621   0.32078   0.00000  Uiso   1.00
C836   C     0.33899   0.85158   0.30198   0.00000  Uiso   1.00
C837   C     0.35068   0.85641   0.31330   0.00000  Uiso   1.00
C838   C     0.38368   0.72491   0.30219   0.00000  Uiso   1.00
C839   C     0.35390   0.76577   0.28350   0.00000  Uiso   1.00
C840   C     0.37886   0.75079   0.28535   0.00000  Uiso   1.00
C841   C     0.40885   0.70963   0.30272   0.00000  Uiso   1.00
C842   C     0.45240   0.70923   0.29266   0.00000  Uiso   1.00
C843   C     0.42814   0.72141   0.28835   0.00000  Uiso   1.00
C844   C     0.39702   0.76362   0.27331   0.00000  Uiso   1.00
C845   C     0.42212   0.74871   0.27471   0.00000  Uiso   1.00
H846   H     0.21613   0.28452   0.11047   0.00000  Uiso   1.00
H847   H     0.18911   0.25815   0.12427   0.00000  Uiso   1.00
H848   H     0.35060   0.84592   0.28496   0.00000  Uiso   1.00
H849   H     0.36936   0.85889   0.30239   0.00000  Uiso   1.00
H850   H     0.23094   0.19045   0.31523   0.00000  Uiso   1.00
H851   H     0.39147   0.78421   0.26341   0.00000  Uiso   1.00
H852   H     0.43649   0.75785   0.26561   0.00000  Uiso   1.00
H853   H     0.36805   0.71712   0.31447   0.00000  Uiso   1.00
H854   H     0.41322   0.68931   0.31389   0.00000  Uiso   1.00
H855   H     0.41451   0.66939   0.45513   0.00000  Uiso   1.00
H856   H     0.37848   0.66144   0.41788   0.00000  Uiso   1.00
H857   H     0.46637   0.78361   0.29459   0.00000  Uiso   1.00
H858   H     0.44481   0.82499   0.30607   0.00000  Uiso   1.00
H859   H     0.45618   0.73783   0.37362   0.00000  Uiso   1.00
H860   H     0.43862   0.77690   0.38689   0.00000  Uiso   1.00
H861   H     0.18910   0.14828   0.32681   0.00000  Uiso   1.00
Cr862  Cr    0.49018   0.03562   0.32036   0.00000  Uiso   1.00
Cr863  Cr    0.09320   0.82372   0.26120   0.00000  Uiso   1.00
O864   O     0.16186   0.19886   0.12076   0.00000  Uiso   1.00
O865   O     0.09669   0.85623   0.25551   0.00000  Uiso   1.00
O866   O     0.13921   0.96218   0.18307   0.00000  Uiso   1.00
O867   O     0.32530   0.81606   0.23226   0.00000  Uiso   1.00
O868   O     0.30565   0.78481   0.25908   0.00000  Uiso   1.00
O869   O     0.47781   0.98306   0.36816   0.00000  Uiso   1.00
O870   O     0.46912   0.02471   0.35534   0.00000  Uiso   1.00
O871   O     0.33838   0.95913   0.48645   0.00000  Uiso   1.00
O872   O     0.29930   0.96972   0.48522   0.00000  Uiso   1.00
O873   O     0.37616   0.87488   0.42133   0.00000  Uiso   1.00
O874   O     0.33645   0.89615   0.41771   0.00000  Uiso   1.00
O875   O     0.28743   0.05646   0.32533   0.00000  Uiso   1.00
O876   O     0.33483   0.92404   0.36840   0.00000  Uiso   1.00
O877   O     0.29232   0.11526   0.33721   0.00000  Uiso   1.00
O878   O     0.27216   0.08895   0.34930   0.00000  Uiso   1.00
O879   O     0.30366   0.05077   0.46250   0.00000  Uiso   1.00
O880   O     0.28165   0.02785   0.46540   0.00000  Uiso   1.00
F881   F     0.07800   0.84375   0.23370   0.00000  Uiso   1.00
C882   C     0.16045   0.20087   0.08055   0.00000  Uiso   1.00
C883   C     0.11144   0.89870   0.22530   0.00000  Uiso   1.00
C884   C     0.12016   0.92087   0.20971   0.00000  Uiso   1.00
C885   C     0.31320   0.78062   0.21433   0.00000  Uiso   1.00
C886   C     0.31104   0.80368   0.23698   0.00000  Uiso   1.00
C887   C     0.31042   0.80431   0.21449   0.00000  Uiso   1.00
C888   C     0.32003   0.82279   0.18985   0.00000  Uiso   1.00
C889   C     0.46565   0.00347   0.37391   0.00000  Uiso   1.00
C890   C     0.44167   0.00352   0.39611   0.00000  Uiso   1.00
C891   C     0.41840   0.02554   0.39580   0.00000  Uiso   1.00
C892   C     0.35959   0.92734   0.45634   0.00000  Uiso   1.00
C893   C     0.32264   0.95423   0.48393   0.00000  Uiso   1.00
C894   C     0.33208   0.93799   0.47010   0.00000  Uiso   1.00
C895   C     0.36721   0.91045   0.44336   0.00000  Uiso   1.00
C896   C     0.35351   0.89267   0.42589   0.00000  Uiso   1.00
C897   C     0.34769   0.91130   0.43692   0.00000  Uiso   1.00
C898   C     0.31358   0.94134   0.46193   0.00000  Uiso   1.00
C899   C     0.32079   0.92543   0.44757   0.00000  Uiso   1.00
C900   C     0.30196   0.00745   0.33901   0.00000  Uiso   1.00
C901   C     0.31329   0.97961   0.35068   0.00000  Uiso   1.00
C902   C     0.30220   0.08923   0.38368   0.00000  Uiso   1.00
C903   C     0.28350   0.09682   0.35390   0.00000  Uiso   1.00
C904   C     0.28536   0.08499   0.37886   0.00000  Uiso   1.00
C905   C     0.30271   0.07881   0.40886   0.00000  Uiso   1.00
C906   C     0.29266   0.04571   0.45240   0.00000  Uiso   1.00
C907   C     0.28836   0.06208   0.42813   0.00000  Uiso   1.00
C908   C     0.27330   0.06606   0.39701   0.00000  Uiso   1.00
C909   C     0.27471   0.05445   0.42213   0.00000  Uiso   1.00
H910   H     0.11047   0.88887   0.21612   0.00000  Uiso   1.00
H911   H     0.12426   0.92847   0.18911   0.00000  Uiso   1.00
H912   H     0.28496   0.01850   0.35060   0.00000  Uiso   1.00
H913   H     0.30237   0.96936   0.36937   0.00000  Uiso   1.00
H914   H     0.14470   0.21311   0.09164   0.00000  Uiso   1.00
H915   H     0.31522   0.76338   0.23094   0.00000  Uiso   1.00
H916   H     0.26342   0.06091   0.39147   0.00000  Uiso   1.00
H917   H     0.26561   0.04005   0.43650   0.00000  Uiso   1.00
H918   H     0.31448   0.10036   0.36805   0.00000  Uiso   1.00
H919   H     0.31389   0.08359   0.41321   0.00000  Uiso   1.00
H920   H     0.41789   0.04220   0.37847   0.00000  Uiso   1.00
H921   H     0.29459   0.95542   0.46637   0.00000  Uiso   1.00
H922   H     0.30606   0.92413   0.44482   0.00000  Uiso   1.00
H923   H     0.37364   0.93236   0.45616   0.00000  Uiso   1.00
H924   H     0.38689   0.89760   0.43862   0.00000  Uiso   1.00
H925   H     0.32681   0.83581   0.18909   0.00000  Uiso   1.00
Cr926  Cr    0.03563   0.49018   0.65383   0.00000  Uiso   1.00
Cr927  Cr    0.82372   0.09320   0.32188   0.00000  Uiso   1.00
O928   O     0.19887   0.16185   0.01852   0.00000  Uiso   1.00
O929   O     0.85622   0.09669   0.29157   0.00000  Uiso   1.00
O930   O     0.96219   0.13922   0.21552   0.00000  Uiso   1.00
O931   O     0.81606   0.32531   0.12637   0.00000  Uiso   1.00
O932   O     0.78481   0.30565   0.15044   0.00000  Uiso   1.00
O933   O     0.98306   0.47782   0.67096   0.00000  Uiso   1.00
O934   O     0.02471   0.46912   0.65081   0.00000  Uiso   1.00
O935   O     0.95913   0.33838   0.71602   0.00000  Uiso   1.00
O936   O     0.96972   0.29931   0.74576   0.00000  Uiso   1.00
O937   O     0.87488   0.37615   0.82762   0.00000  Uiso   1.00
O938   O     0.89616   0.33646   0.84968   0.00000  Uiso   1.00
O939   O     0.05646   0.28743   0.83078   0.00000  Uiso   1.00
O940   O     0.92405   0.33482   0.87274   0.00000  Uiso   1.00
O941   O     0.11526   0.29232   0.75519   0.00000  Uiso   1.00
O942   O     0.08893   0.27216   0.78959   0.00000  Uiso   1.00
O943   O     0.05079   0.30365   0.68306   0.00000  Uiso   1.00
O944   O     0.02784   0.28166   0.72510   0.00000  Uiso   1.00
F945   F     0.06696   0.48356   0.62144   0.00000  Uiso   1.00
C946   C     0.20086   0.16044   0.05814   0.00000  Uiso   1.00
C947   C     0.89870   0.11144   0.26456   0.00000  Uiso   1.00
C948   C     0.92089   0.12015   0.24924   0.00000  Uiso   1.00
C949   C     0.78061   0.31321   0.19184   0.00000  Uiso   1.00
C950   C     0.80368   0.31103   0.14832   0.00000  Uiso   1.00
C951   C     0.80431   0.31041   0.17079   0.00000  Uiso   1.00
C952   C     0.82278   0.32003   0.16734   0.00000  Uiso   1.00
C953   C     0.00348   0.46564   0.65697   0.00000  Uiso   1.00
C954   C     0.00351   0.44167   0.65870   0.00000  Uiso   1.00
C955   C     0.02553   0.41840   0.66026   0.00000  Uiso   1.00
C956   C     0.92735   0.35958   0.75673   0.00000  Uiso   1.00
C957   C     0.95423   0.32265   0.73919   0.00000  Uiso   1.00
C958   C     0.93798   0.33208   0.75983   0.00000  Uiso   1.00
C959   C     0.91045   0.36721   0.77899   0.00000  Uiso   1.00
C960   C     0.89269   0.35349   0.82791   0.00000  Uiso   1.00
C961   C     0.91131   0.34769   0.80408   0.00000  Uiso   1.00
C962   C     0.94134   0.31358   0.78314   0.00000  Uiso   1.00
C963   C     0.92543   0.32080   0.80620   0.00000  Uiso   1.00
C964   C     0.97962   0.31329   0.85641   0.00000  Uiso   1.00
C965   C     0.08922   0.30220   0.72491   0.00000  Uiso   1.00
C966   C     0.09683   0.28350   0.76578   0.00000  Uiso   1.00
C967   C     0.08500   0.28536   0.75077   0.00000  Uiso   1.00
C968   C     0.07881   0.30272   0.70963   0.00000  Uiso   1.00
C969   C     0.04569   0.29267   0.70924   0.00000  Uiso   1.00
C970   C     0.06207   0.28837   0.72142   0.00000  Uiso   1.00
C971   C     0.06606   0.27329   0.76361   0.00000  Uiso   1.00
C972   C     0.05444   0.27471   0.74870   0.00000  Uiso   1.00
H973   H     0.88889   0.11047   0.28451   0.00000  Uiso   1.00
H974   H     0.92847   0.12427   0.25814   0.00000  Uiso   1.00
H975   H     0.96937   0.30238   0.85888   0.00000  Uiso   1.00
H976   H     0.21310   0.14469   0.05056   0.00000  Uiso   1.00
H977   H     0.76337   0.31523   0.19046   0.00000  Uiso   1.00
H978   H     0.06091   0.26341   0.78422   0.00000  Uiso   1.00
H979   H     0.04004   0.26560   0.75785   0.00000  Uiso   1.00
H980   H     0.10035   0.31447   0.71713   0.00000  Uiso   1.00
H981   H     0.08359   0.31388   0.68930   0.00000  Uiso   1.00
H982   H     0.04220   0.41790   0.66143   0.00000  Uiso   1.00
H983   H     0.95542   0.29459   0.78361   0.00000  Uiso   1.00
H984   H     0.92412   0.30606   0.82501   0.00000  Uiso   1.00
H985   H     0.93237   0.37363   0.73783   0.00000  Uiso   1.00
H986   H     0.89760   0.38689   0.77689   0.00000  Uiso   1.00
H987   H     0.83582   0.32681   0.14828   0.00000  Uiso   1.00
Cr988  Cr    0.49019   0.65382   0.03563   0.00000  Uiso   1.00
Cr989  Cr    0.09319   0.32189   0.82372   0.00000  Uiso   1.00
O990   O     0.16185   0.01851   0.19888   0.00000  Uiso   1.00
O991   O     0.09669   0.29157   0.85623   0.00000  Uiso   1.00
O992   O     0.13921   0.21553   0.96220   0.00000  Uiso   1.00
O993   O     0.32530   0.12637   0.81606   0.00000  Uiso   1.00
O994   O     0.30566   0.15045   0.78480   0.00000  Uiso   1.00
O995   O     0.47782   0.67096   0.98305   0.00000  Uiso   1.00
O996   O     0.46913   0.65081   0.02471   0.00000  Uiso   1.00
O997   O     0.33839   0.71603   0.95914   0.00000  Uiso   1.00
O998   O     0.29929   0.74576   0.96972   0.00000  Uiso   1.00
O999   O     0.37616   0.82761   0.87488   0.00000  Uiso   1.00
O1000  O     0.33645   0.84968   0.89616   0.00000  Uiso   1.00
O1001  O     0.28744   0.83078   0.05646   0.00000  Uiso   1.00
O1002  O     0.33482   0.87272   0.92406   0.00000  Uiso   1.00
O1003  O     0.29232   0.75519   0.11526   0.00000  Uiso   1.00
O1004  O     0.27216   0.78960   0.08893   0.00000  Uiso   1.00
O1005  O     0.30366   0.68306   0.05077   0.00000  Uiso   1.00
O1006  O     0.28166   0.72511   0.02783   0.00000  Uiso   1.00
C1007  C     0.16045   0.05813   0.20086   0.00000  Uiso   1.00
C1008  C     0.11144   0.26455   0.89870   0.00000  Uiso   1.00
C1009  C     0.12016   0.24924   0.92088   0.00000  Uiso   1.00
C1010  C     0.31320   0.19185   0.78061   0.00000  Uiso   1.00
C1011  C     0.31104   0.14830   0.80369   0.00000  Uiso   1.00
C1012  C     0.31041   0.17079   0.80431   0.00000  Uiso   1.00
C1013  C     0.32003   0.16733   0.82279   0.00000  Uiso   1.00
C1014  C     0.46564   0.65695   0.00349   0.00000  Uiso   1.00
C1015  C     0.44166   0.65870   0.00353   0.00000  Uiso   1.00
C1016  C     0.41840   0.66026   0.02553   0.00000  Uiso   1.00
C1017  C     0.35959   0.75672   0.92735   0.00000  Uiso   1.00
C1018  C     0.32265   0.73918   0.95423   0.00000  Uiso   1.00
C1019  C     0.33209   0.75983   0.93799   0.00000  Uiso   1.00
C1020  C     0.36720   0.77898   0.91045   0.00000  Uiso   1.00
C1021  C     0.35350   0.82792   0.89268   0.00000  Uiso   1.00
C1022  C     0.34769   0.80408   0.91129   0.00000  Uiso   1.00
C1023  C     0.31358   0.78313   0.94134   0.00000  Uiso   1.00
C1024  C     0.32079   0.80621   0.92542   0.00000  Uiso   1.00
C1025  C     0.31330   0.85641   0.97960   0.00000  Uiso   1.00
C1026  C     0.30220   0.72489   0.08922   0.00000  Uiso   1.00
C1027  C     0.28350   0.76578   0.09683   0.00000  Uiso   1.00
C1028  C     0.28536   0.75078   0.08500   0.00000  Uiso   1.00
C1029  C     0.30271   0.70962   0.07882   0.00000  Uiso   1.00
C1030  C     0.29266   0.70925   0.04570   0.00000  Uiso   1.00
C1031  C     0.28837   0.72141   0.06208   0.00000  Uiso   1.00
C1032  C     0.27331   0.76362   0.06605   0.00000  Uiso   1.00
C1033  C     0.27471   0.74870   0.05445   0.00000  Uiso   1.00
H1034  H     0.11046   0.28453   0.88888   0.00000  Uiso   1.00
H1035  H     0.12427   0.25816   0.92848   0.00000  Uiso   1.00
H1036  H     0.30238   0.85888   0.96937   0.00000  Uiso   1.00
H1037  H     0.14470   0.05055   0.21310   0.00000  Uiso   1.00
H1038  H     0.31522   0.19047   0.76336   0.00000  Uiso   1.00
H1039  H     0.26341   0.78420   0.06091   0.00000  Uiso   1.00
H1040  H     0.26560   0.75784   0.04005   0.00000  Uiso   1.00
H1041  H     0.31448   0.71712   0.10035   0.00000  Uiso   1.00
H1042  H     0.31389   0.68930   0.08359   0.00000  Uiso   1.00
H1043  H     0.41788   0.66145   0.04220   0.00000  Uiso   1.00
H1044  H     0.29459   0.78360   0.95543   0.00000  Uiso   1.00
H1045  H     0.30606   0.82500   0.92411   0.00000  Uiso   1.00
H1046  H     0.37362   0.73783   0.93238   0.00000  Uiso   1.00
H1047  H     0.38688   0.77690   0.89759   0.00000  Uiso   1.00
H1048  H     0.32681   0.14827   0.83582   0.00000  Uiso   1.00
Cr1049 Cr    0.03563   0.32035   0.49019   0.00000  Uiso   1.00
Cr1050 Cr    0.82373   0.26119   0.09320   0.00000  Uiso   1.00
O1051  O     0.19888   0.12076   0.16184   0.00000  Uiso   1.00
O1052  O     0.85622   0.25551   0.09669   0.00000  Uiso   1.00
O1053  O     0.96219   0.18307   0.13922   0.00000  Uiso   1.00
O1054  O     0.81606   0.23226   0.32531   0.00000  Uiso   1.00
O1055  O     0.78479   0.25910   0.30566   0.00000  Uiso   1.00
O1056  O     0.98306   0.36815   0.47781   0.00000  Uiso   1.00
O1057  O     0.02471   0.35536   0.46912   0.00000  Uiso   1.00
O1058  O     0.95912   0.48646   0.33838   0.00000  Uiso   1.00
O1059  O     0.96972   0.48523   0.29931   0.00000  Uiso   1.00
O1060  O     0.87489   0.42133   0.37616   0.00000  Uiso   1.00
O1061  O     0.89616   0.41770   0.33645   0.00000  Uiso   1.00
O1062  O     0.05646   0.32533   0.28744   0.00000  Uiso   1.00
O1063  O     0.92404   0.36839   0.33484   0.00000  Uiso   1.00
O1064  O     0.11525   0.33722   0.29233   0.00000  Uiso   1.00
O1065  O     0.08894   0.34930   0.27216   0.00000  Uiso   1.00
O1066  O     0.05079   0.46250   0.30365   0.00000  Uiso   1.00
O1067  O     0.02784   0.46540   0.28167   0.00000  Uiso   1.00
C1068  C     0.20087   0.08054   0.16046   0.00000  Uiso   1.00
C1069  C     0.89869   0.22531   0.11144   0.00000  Uiso   1.00
C1070  C     0.92088   0.20972   0.12015   0.00000  Uiso   1.00
C1071  C     0.78061   0.21434   0.31320   0.00000  Uiso   1.00
C1072  C     0.80369   0.23696   0.31104   0.00000  Uiso   1.00
C1073  C     0.80430   0.21449   0.31042   0.00000  Uiso   1.00
C1074  C     0.82279   0.18985   0.32002   0.00000  Uiso   1.00
C1075  C     0.00349   0.37392   0.46563   0.00000  Uiso   1.00
C1076  C     0.00352   0.39612   0.44166   0.00000  Uiso   1.00
C1077  C     0.02553   0.39580   0.41841   0.00000  Uiso   1.00
C1078  C     0.92735   0.45633   0.35959   0.00000  Uiso   1.00
C1079  C     0.95422   0.48393   0.32266   0.00000  Uiso   1.00
C1080  C     0.93799   0.47009   0.33209   0.00000  Uiso   1.00
C1081  C     0.91044   0.44335   0.36721   0.00000  Uiso   1.00
C1082  C     0.89269   0.42589   0.35351   0.00000  Uiso   1.00
C1083  C     0.91130   0.43692   0.34770   0.00000  Uiso   1.00
C1084  C     0.94134   0.46195   0.31357   0.00000  Uiso   1.00
C1085  C     0.92544   0.44756   0.32078   0.00000  Uiso   1.00
C1086  C     0.00744   0.33901   0.30198   0.00000  Uiso   1.00
C1087  C     0.97961   0.35069   0.31330   0.00000  Uiso   1.00
C1088  C     0.08923   0.38368   0.30219   0.00000  Uiso   1.00
C1089  C     0.09682   0.35389   0.28350   0.00000  Uiso   1.00
C1090  C     0.08500   0.37885   0.28535   0.00000  Uiso   1.00
C1091  C     0.07882   0.40884   0.30272   0.00000  Uiso   1.00
C1092  C     0.04571   0.45240   0.29266   0.00000  Uiso   1.00
C1093  C     0.06209   0.42815   0.28835   0.00000  Uiso   1.00
C1094  C     0.06606   0.39702   0.27331   0.00000  Uiso   1.00
C1095  C     0.05445   0.42213   0.27471   0.00000  Uiso   1.00
H1096  H     0.88888   0.21613   0.11047   0.00000  Uiso   1.00
H1097  H     0.92848   0.18911   0.12427   0.00000  Uiso   1.00
H1098  H     0.01850   0.35061   0.28496   0.00000  Uiso   1.00
H1099  H     0.96936   0.36937   0.30239   0.00000  Uiso   1.00
H1100  H     0.21310   0.09164   0.14469   0.00000  Uiso   1.00
H1101  H     0.76338   0.23093   0.31523   0.00000  Uiso   1.00
H1102  H     0.06092   0.39146   0.26341   0.00000  Uiso   1.00
H1103  H     0.04005   0.43650   0.26561   0.00000  Uiso   1.00
H1104  H     0.10036   0.36804   0.31447   0.00000  Uiso   1.00
H1105  H     0.08359   0.41320   0.31389   0.00000  Uiso   1.00
H1106  H     0.04219   0.37848   0.41788   0.00000  Uiso   1.00
H1107  H     0.95542   0.46636   0.29459   0.00000  Uiso   1.00
H1108  H     0.92412   0.44481   0.30607   0.00000  Uiso   1.00
H1109  H     0.93237   0.45617   0.37362   0.00000  Uiso   1.00
H1110  H     0.89759   0.43861   0.38689   0.00000  Uiso   1.00
H1111  H     0.83583   0.18909   0.32681   0.00000  Uiso   1.00
Cr1112 Cr    0.65383   0.49019   0.32036   0.00000  Uiso   1.00
Cr1113 Cr    0.32188   0.09319   0.26120   0.00000  Uiso   1.00
O1114  O     0.29156   0.09669   0.25551   0.00000  Uiso   1.00
O1115  O     0.21553   0.13921   0.18307   0.00000  Uiso   1.00
O1116  O     0.12638   0.32529   0.23226   0.00000  Uiso   1.00
O1117  O     0.15045   0.30566   0.25908   0.00000  Uiso   1.00
O1118  O     0.67096   0.47782   0.36816   0.00000  Uiso   1.00
O1119  O     0.65081   0.46914   0.35534   0.00000  Uiso   1.00
O1120  O     0.71603   0.33839   0.48645   0.00000  Uiso   1.00
O1121  O     0.74576   0.29929   0.48522   0.00000  Uiso   1.00
O1122  O     0.82762   0.37616   0.42133   0.00000  Uiso   1.00
O1123  O     0.84967   0.33646   0.41771   0.00000  Uiso   1.00
O1124  O     0.83078   0.28744   0.32533   0.00000  Uiso   1.00
O1125  O     0.87272   0.33482   0.36840   0.00000  Uiso   1.00
O1126  O     0.75520   0.29233   0.33721   0.00000  Uiso   1.00
O1127  O     0.78960   0.27217   0.34930   0.00000  Uiso   1.00
O1128  O     0.68306   0.30365   0.46250   0.00000  Uiso   1.00
O1129  O     0.72510   0.28167   0.46540   0.00000  Uiso   1.00
F1130  F     0.34455   0.07799   0.23370   0.00000  Uiso   1.00
C1131  C     0.26455   0.11144   0.22530   0.00000  Uiso   1.00
C1132  C     0.24924   0.12017   0.20971   0.00000  Uiso   1.00
C1133  C     0.19183   0.31321   0.21433   0.00000  Uiso   1.00
C1134  C     0.14831   0.31102   0.23698   0.00000  Uiso   1.00
C1135  C     0.17079   0.31042   0.21449   0.00000  Uiso   1.00
C1136  C     0.16733   0.32002   0.18985   0.00000  Uiso   1.00
C1137  C     0.66492   0.43971   0.41662   0.00000  Uiso   1.00
C1138  C     0.65695   0.46565   0.37391   0.00000  Uiso   1.00
C1139  C     0.65871   0.44166   0.39611   0.00000  Uiso   1.00
C1140  C     0.66026   0.41841   0.39580   0.00000  Uiso   1.00
C1141  C     0.75673   0.35958   0.45634   0.00000  Uiso   1.00
C1142  C     0.73919   0.32264   0.48393   0.00000  Uiso   1.00
C1143  C     0.75983   0.33208   0.47010   0.00000  Uiso   1.00
C1144  C     0.77898   0.36720   0.44336   0.00000  Uiso   1.00
C1145  C     0.82792   0.35351   0.42589   0.00000  Uiso   1.00
C1146  C     0.80408   0.34770   0.43692   0.00000  Uiso   1.00
C1147  C     0.78314   0.31358   0.46193   0.00000  Uiso   1.00
C1148  C     0.80621   0.32080   0.44757   0.00000  Uiso   1.00
C1149  C     0.85158   0.30198   0.33901   0.00000  Uiso   1.00
C1150  C     0.85641   0.31329   0.35068   0.00000  Uiso   1.00
C1151  C     0.72490   0.30220   0.38368   0.00000  Uiso   1.00
C1152  C     0.76579   0.28350   0.35390   0.00000  Uiso   1.00
C1153  C     0.75078   0.28535   0.37886   0.00000  Uiso   1.00
C1154  C     0.70963   0.30270   0.40886   0.00000  Uiso   1.00
C1155  C     0.70923   0.29267   0.45240   0.00000  Uiso   1.00
C1156  C     0.72142   0.28835   0.42813   0.00000  Uiso   1.00
C1157  C     0.76362   0.27330   0.39701   0.00000  Uiso   1.00
C1158  C     0.74872   0.27470   0.42213   0.00000  Uiso   1.00
H1159  H     0.28453   0.11046   0.21612   0.00000  Uiso   1.00
H1160  H     0.25814   0.12426   0.18911   0.00000  Uiso   1.00
H1161  H     0.84592   0.28496   0.35060   0.00000  Uiso   1.00
H1162  H     0.85889   0.30237   0.36937   0.00000  Uiso   1.00
H1163  H     0.19045   0.31524   0.23094   0.00000  Uiso   1.00
H1164  H     0.78421   0.26340   0.39147   0.00000  Uiso   1.00
H1165  H     0.75785   0.26559   0.43650   0.00000  Uiso   1.00
H1166  H     0.71713   0.31447   0.36805   0.00000  Uiso   1.00
H1167  H     0.68930   0.31389   0.41321   0.00000  Uiso   1.00
H1168  H     0.66938   0.45513   0.41451   0.00000  Uiso   1.00
H1169  H     0.66144   0.41790   0.37847   0.00000  Uiso   1.00
H1170  H     0.78360   0.29459   0.46637   0.00000  Uiso   1.00
H1171  H     0.82498   0.30607   0.44482   0.00000  Uiso   1.00
H1172  H     0.73783   0.37363   0.45616   0.00000  Uiso   1.00
H1173  H     0.77689   0.38688   0.43862   0.00000  Uiso   1.00
H1174  H     0.14827   0.32682   0.18909   0.00000  Uiso   1.00
Cr1175 Cr    0.32034   0.03564   0.65383   0.00000  Uiso   1.00
Cr1176 Cr    0.26119   0.82373   0.32188   0.00000  Uiso   1.00
O1177  O     0.25551   0.85623   0.29157   0.00000  Uiso   1.00
O1178  O     0.18307   0.96219   0.21552   0.00000  Uiso   1.00
O1179  O     0.23227   0.81606   0.12637   0.00000  Uiso   1.00
O1180  O     0.25909   0.78481   0.15044   0.00000  Uiso   1.00
O1181  O     0.36816   0.98305   0.67096   0.00000  Uiso   1.00
O1182  O     0.35535   0.02472   0.65081   0.00000  Uiso   1.00
O1183  O     0.48645   0.95914   0.71602   0.00000  Uiso   1.00
O1184  O     0.48521   0.96971   0.74576   0.00000  Uiso   1.00
O1185  O     0.42133   0.87488   0.82762   0.00000  Uiso   1.00
O1186  O     0.41769   0.89615   0.84968   0.00000  Uiso   1.00
O1187  O     0.32532   0.05646   0.83078   0.00000  Uiso   1.00
O1188  O     0.36838   0.92404   0.87274   0.00000  Uiso   1.00
O1189  O     0.33723   0.11526   0.75519   0.00000  Uiso   1.00
O1190  O     0.34930   0.08895   0.78959   0.00000  Uiso   1.00
O1191  O     0.46251   0.05077   0.68306   0.00000  Uiso   1.00
O1192  O     0.46539   0.02785   0.72510   0.00000  Uiso   1.00
F1193  F     0.23372   0.84375   0.34454   0.00000  Uiso   1.00
C1194  C     0.22530   0.89869   0.26456   0.00000  Uiso   1.00
C1195  C     0.20973   0.92087   0.24924   0.00000  Uiso   1.00
C1196  C     0.21434   0.78062   0.19184   0.00000  Uiso   1.00
C1197  C     0.23697   0.80369   0.14832   0.00000  Uiso   1.00
C1198  C     0.21449   0.80430   0.17079   0.00000  Uiso   1.00
C1199  C     0.18986   0.82278   0.16734   0.00000  Uiso   1.00
C1200  C     0.37391   0.00348   0.65697   0.00000  Uiso   1.00
C1201  C     0.39611   0.00353   0.65870   0.00000  Uiso   1.00
C1202  C     0.39580   0.02554   0.66026   0.00000  Uiso   1.00
C1203  C     0.45632   0.92735   0.75673   0.00000  Uiso   1.00
C1204  C     0.48393   0.95422   0.73919   0.00000  Uiso   1.00
C1205  C     0.47009   0.93799   0.75983   0.00000  Uiso   1.00
C1206  C     0.44334   0.91045   0.77899   0.00000  Uiso   1.00
C1207  C     0.42591   0.89268   0.82791   0.00000  Uiso   1.00
C1208  C     0.43692   0.91130   0.80408   0.00000  Uiso   1.00
C1209  C     0.46193   0.94134   0.78314   0.00000  Uiso   1.00
C1210  C     0.44756   0.92544   0.80620   0.00000  Uiso   1.00
C1211  C     0.35069   0.97961   0.85641   0.00000  Uiso   1.00
C1212  C     0.38368   0.08921   0.72491   0.00000  Uiso   1.00
C1213  C     0.35390   0.09683   0.76578   0.00000  Uiso   1.00
C1214  C     0.37887   0.08500   0.75077   0.00000  Uiso   1.00
C1215  C     0.40885   0.07881   0.70963   0.00000  Uiso   1.00
C1216  C     0.45240   0.04570   0.70924   0.00000  Uiso   1.00
C1217  C     0.42815   0.06208   0.72142   0.00000  Uiso   1.00
C1218  C     0.39702   0.06605   0.76361   0.00000  Uiso   1.00
C1219  C     0.42213   0.05445   0.74870   0.00000  Uiso   1.00
H1220  H     0.21613   0.88888   0.28451   0.00000  Uiso   1.00
H1221  H     0.18911   0.92847   0.25814   0.00000  Uiso   1.00
H1222  H     0.36938   0.96936   0.85888   0.00000  Uiso   1.00
H1223  H     0.23094   0.76336   0.19046   0.00000  Uiso   1.00
H1224  H     0.39145   0.06092   0.78422   0.00000  Uiso   1.00
H1225  H     0.43651   0.04005   0.75785   0.00000  Uiso   1.00
H1226  H     0.36804   0.10035   0.71713   0.00000  Uiso   1.00
H1227  H     0.41322   0.08359   0.68930   0.00000  Uiso   1.00
H1228  H     0.37847   0.04220   0.66143   0.00000  Uiso   1.00
H1229  H     0.46637   0.95542   0.78361   0.00000  Uiso   1.00
H1230  H     0.44481   0.92411   0.82501   0.00000  Uiso   1.00
H1231  H     0.45616   0.93237   0.73783   0.00000  Uiso   1.00
H1232  H     0.43862   0.89759   0.77689   0.00000  Uiso   1.00
H1233  H     0.18909   0.83582   0.14828   0.00000  Uiso   1.00
Cr1234 Cr    0.32035   0.49019   0.03563   0.00000  Uiso   1.00
Cr1235 Cr    0.26119   0.09321   0.82372   0.00000  Uiso   1.00
O1236  O     0.12077   0.16186   0.19888   0.00000  Uiso   1.00
O1237  O     0.25551   0.09668   0.85623   0.00000  Uiso   1.00
O1238  O     0.18307   0.13920   0.96220   0.00000  Uiso   1.00
O1239  O     0.23226   0.32530   0.81606   0.00000  Uiso   1.00
O1240  O     0.25909   0.30564   0.78480   0.00000  Uiso   1.00
O1241  O     0.36817   0.47781   0.98305   0.00000  Uiso   1.00
O1242  O     0.35535   0.46913   0.02471   0.00000  Uiso   1.00
O1243  O     0.48644   0.33838   0.95914   0.00000  Uiso   1.00
O1244  O     0.48522   0.29929   0.96972   0.00000  Uiso   1.00
O1245  O     0.42134   0.37617   0.87488   0.00000  Uiso   1.00
O1246  O     0.41770   0.33646   0.89617   0.00000  Uiso   1.00
O1247  O     0.32531   0.28744   0.05646   0.00000  Uiso   1.00
O1248  O     0.36840   0.33482   0.92406   0.00000  Uiso   1.00
O1249  O     0.33722   0.29232   0.11526   0.00000  Uiso   1.00
O1250  O     0.34930   0.27217   0.08893   0.00000  Uiso   1.00
O1251  O     0.46250   0.30367   0.05077   0.00000  Uiso   1.00
O1252  O     0.46540   0.28166   0.02783   0.00000  Uiso   1.00
C1253  C     0.08054   0.16046   0.20086   0.00000  Uiso   1.00
C1254  C     0.22530   0.11143   0.89870   0.00000  Uiso   1.00
C1255  C     0.20972   0.12016   0.92088   0.00000  Uiso   1.00
C1256  C     0.21435   0.31320   0.78061   0.00000  Uiso   1.00
C1257  C     0.23697   0.31104   0.80369   0.00000  Uiso   1.00
C1258  C     0.21449   0.31041   0.80431   0.00000  Uiso   1.00
C1259  C     0.18986   0.32003   0.82279   0.00000  Uiso   1.00
C1260  C     0.37392   0.46564   0.00349   0.00000  Uiso   1.00
C1261  C     0.39613   0.44165   0.00353   0.00000  Uiso   1.00
C1262  C     0.39581   0.41840   0.02553   0.00000  Uiso   1.00
C1263  C     0.45632   0.35960   0.92735   0.00000  Uiso   1.00
C1264  C     0.48394   0.32265   0.95423   0.00000  Uiso   1.00
C1265  C     0.47009   0.33209   0.93799   0.00000  Uiso   1.00
C1266  C     0.44334   0.36721   0.91045   0.00000  Uiso   1.00
C1267  C     0.42590   0.35350   0.89268   0.00000  Uiso   1.00
C1268  C     0.43693   0.34769   0.91129   0.00000  Uiso   1.00
C1269  C     0.46194   0.31359   0.94134   0.00000  Uiso   1.00
C1270  C     0.44757   0.32079   0.92542   0.00000  Uiso   1.00
C1271  C     0.33900   0.30198   0.00745   0.00000  Uiso   1.00
C1272  C     0.35069   0.31329   0.97960   0.00000  Uiso   1.00
C1273  C     0.38368   0.30221   0.08922   0.00000  Uiso   1.00
C1274  C     0.35390   0.28350   0.09683   0.00000  Uiso   1.00
C1275  C     0.37886   0.28535   0.08500   0.00000  Uiso   1.00
C1276  C     0.40884   0.30270   0.07882   0.00000  Uiso   1.00
C1277  C     0.45240   0.29266   0.04570   0.00000  Uiso   1.00
C1278  C     0.42814   0.28836   0.06208   0.00000  Uiso   1.00
C1279  C     0.39701   0.27331   0.06605   0.00000  Uiso   1.00
C1280  C     0.42213   0.27471   0.05445   0.00000  Uiso   1.00
H1281  H     0.21613   0.11046   0.88888   0.00000  Uiso   1.00
H1282  H     0.18909   0.12427   0.92848   0.00000  Uiso   1.00
H1283  H     0.35061   0.28495   0.01852   0.00000  Uiso   1.00
H1284  H     0.36937   0.30237   0.96937   0.00000  Uiso   1.00
H1285  H     0.09165   0.14469   0.21310   0.00000  Uiso   1.00
H1286  H     0.23094   0.31523   0.76336   0.00000  Uiso   1.00
H1287  H     0.39147   0.26341   0.06091   0.00000  Uiso   1.00
H1288  H     0.43649   0.26560   0.04005   0.00000  Uiso   1.00
H1289  H     0.36805   0.31447   0.10035   0.00000  Uiso   1.00
H1290  H     0.41321   0.31390   0.08359   0.00000  Uiso   1.00
H1291  H     0.37847   0.41790   0.04220   0.00000  Uiso   1.00
H1292  H     0.46636   0.29459   0.95543   0.00000  Uiso   1.00
H1293  H     0.44481   0.30606   0.92411   0.00000  Uiso   1.00
H1294  H     0.45616   0.37363   0.93238   0.00000  Uiso   1.00
H1295  H     0.43862   0.38688   0.89759   0.00000  Uiso   1.00
H1296  H     0.18909   0.32680   0.83582   0.00000  Uiso   1.00
Cr1297 Cr    0.65383   0.03563   0.49019   0.00000  Uiso   1.00
Cr1298 Cr    0.32189   0.82371   0.09320   0.00000  Uiso   1.00
O1299  O     0.01851   0.19888   0.16184   0.00000  Uiso   1.00
O1300  O     0.29157   0.85623   0.09669   0.00000  Uiso   1.00
O1301  O     0.21553   0.96219   0.13922   0.00000  Uiso   1.00
O1302  O     0.12637   0.81606   0.32531   0.00000  Uiso   1.00
O1303  O     0.15044   0.78481   0.30566   0.00000  Uiso   1.00
O1304  O     0.67096   0.98306   0.47781   0.00000  Uiso   1.00
O1305  O     0.65081   0.02471   0.46912   0.00000  Uiso   1.00
O1306  O     0.71603   0.95913   0.33838   0.00000  Uiso   1.00
O1307  O     0.74576   0.96971   0.29931   0.00000  Uiso   1.00
O1308  O     0.82762   0.87487   0.37616   0.00000  Uiso   1.00
O1309  O     0.84969   0.89615   0.33645   0.00000  Uiso   1.00
O1310  O     0.83077   0.05646   0.28744   0.00000  Uiso   1.00
O1311  O     0.87272   0.92405   0.33484   0.00000  Uiso   1.00
O1312  O     0.75520   0.11525   0.29233   0.00000  Uiso   1.00
O1313  O     0.78960   0.08894   0.27216   0.00000  Uiso   1.00
O1314  O     0.68306   0.05078   0.30365   0.00000  Uiso   1.00
O1315  O     0.72510   0.02785   0.28167   0.00000  Uiso   1.00
C1316  C     0.05814   0.20086   0.16046   0.00000  Uiso   1.00
C1317  C     0.26455   0.89870   0.11144   0.00000  Uiso   1.00
C1318  C     0.24925   0.92088   0.12016   0.00000  Uiso   1.00
C1319  C     0.19184   0.78063   0.31320   0.00000  Uiso   1.00
C1320  C     0.14830   0.80369   0.31104   0.00000  Uiso   1.00
C1321  C     0.17079   0.80430   0.31042   0.00000  Uiso   1.00
C1322  C     0.16733   0.82278   0.32002   0.00000  Uiso   1.00
C1323  C     0.65696   0.00348   0.46563   0.00000  Uiso   1.00
C1324  C     0.65870   0.00351   0.44166   0.00000  Uiso   1.00
C1325  C     0.66025   0.02554   0.41841   0.00000  Uiso   1.00
C1326  C     0.75673   0.92734   0.35959   0.00000  Uiso   1.00
C1327  C     0.73919   0.95423   0.32266   0.00000  Uiso   1.00
C1328  C     0.75983   0.93798   0.33209   0.00000  Uiso   1.00
C1329  C     0.77899   0.91045   0.36721   0.00000  Uiso   1.00
C1330  C     0.82791   0.89267   0.35351   0.00000  Uiso   1.00
C1331  C     0.80408   0.91130   0.34770   0.00000  Uiso   1.00
C1332  C     0.78314   0.94134   0.31357   0.00000  Uiso   1.00
C1333  C     0.80620   0.92543   0.32078   0.00000  Uiso   1.00
C1334  C     0.85639   0.97961   0.31330   0.00000  Uiso   1.00
C1335  C     0.72491   0.08921   0.30219   0.00000  Uiso   1.00
C1336  C     0.76577   0.09682   0.28350   0.00000  Uiso   1.00
C1337  C     0.75079   0.08500   0.28535   0.00000  Uiso   1.00
C1338  C     0.70962   0.07880   0.30272   0.00000  Uiso   1.00
C1339  C     0.70924   0.04570   0.29266   0.00000  Uiso   1.00
C1340  C     0.72143   0.06207   0.28835   0.00000  Uiso   1.00
C1341  C     0.76361   0.06606   0.27331   0.00000  Uiso   1.00
C1342  C     0.74871   0.05444   0.27471   0.00000  Uiso   1.00
H1343  H     0.28453   0.88887   0.11047   0.00000  Uiso   1.00
H1344  H     0.25814   0.92848   0.12427   0.00000  Uiso   1.00
H1345  H     0.85887   0.96936   0.30239   0.00000  Uiso   1.00
H1346  H     0.05056   0.21310   0.14469   0.00000  Uiso   1.00
H1347  H     0.19046   0.76337   0.31523   0.00000  Uiso   1.00
H1348  H     0.78421   0.06091   0.26341   0.00000  Uiso   1.00
H1349  H     0.75785   0.04005   0.26561   0.00000  Uiso   1.00
H1350  H     0.71713   0.10036   0.31447   0.00000  Uiso   1.00
H1351  H     0.68931   0.08359   0.31389   0.00000  Uiso   1.00
H1352  H     0.66145   0.04220   0.41788   0.00000  Uiso   1.00
H1353  H     0.78360   0.95542   0.29459   0.00000  Uiso   1.00
H1354  H     0.82499   0.92412   0.30607   0.00000  Uiso   1.00
H1355  H     0.73782   0.93237   0.37362   0.00000  Uiso   1.00
H1356  H     0.77689   0.89759   0.38689   0.00000  Uiso   1.00
H1357  H     0.14827   0.83583   0.32681   0.00000  Uiso   1.00
Cr1358 Cr    0.03564   0.65382   0.32036   0.00000  Uiso   1.00
Cr1359 Cr    0.82372   0.32187   0.26120   0.00000  Uiso   1.00
O1360  O     0.85624   0.29156   0.25551   0.00000  Uiso   1.00
O1361  O     0.96219   0.21553   0.18307   0.00000  Uiso   1.00
O1362  O     0.81605   0.12638   0.23226   0.00000  Uiso   1.00
O1363  O     0.78481   0.15046   0.25908   0.00000  Uiso   1.00
O1364  O     0.98305   0.67096   0.36816   0.00000  Uiso   1.00
O1365  O     0.02471   0.65082   0.35534   0.00000  Uiso   1.00
O1366  O     0.95912   0.71602   0.48645   0.00000  Uiso   1.00
O1367  O     0.96971   0.74576   0.48522   0.00000  Uiso   1.00
O1368  O     0.87489   0.82762   0.42133   0.00000  Uiso   1.00
O1369  O     0.89616   0.84968   0.41771   0.00000  Uiso   1.00
O1370  O     0.05645   0.83077   0.32533   0.00000  Uiso   1.00
O1371  O     0.92404   0.87274   0.36840   0.00000  Uiso   1.00
O1372  O     0.11527   0.75520   0.33721   0.00000  Uiso   1.00
O1373  O     0.08894   0.78960   0.34930   0.00000  Uiso   1.00
O1374  O     0.05077   0.68307   0.46250   0.00000  Uiso   1.00
O1375  O     0.02784   0.72510   0.46540   0.00000  Uiso   1.00
F1376  F     0.06696   0.62144   0.32803   0.00000  Uiso   1.00
C1377  C     0.89870   0.26456   0.22530   0.00000  Uiso   1.00
C1378  C     0.92089   0.24924   0.20971   0.00000  Uiso   1.00
C1379  C     0.78062   0.19184   0.21433   0.00000  Uiso   1.00
C1380  C     0.80368   0.14831   0.23698   0.00000  Uiso   1.00
C1381  C     0.80431   0.17078   0.21449   0.00000  Uiso   1.00
C1382  C     0.82280   0.16733   0.18985   0.00000  Uiso   1.00
C1383  C     0.00349   0.65695   0.37391   0.00000  Uiso   1.00
C1384  C     0.00353   0.65870   0.39611   0.00000  Uiso   1.00
C1385  C     0.02553   0.66026   0.39580   0.00000  Uiso   1.00
C1386  C     0.92735   0.75673   0.45634   0.00000  Uiso   1.00
C1387  C     0.95423   0.73919   0.48393   0.00000  Uiso   1.00
C1388  C     0.93798   0.75982   0.47010   0.00000  Uiso   1.00
C1389  C     0.91044   0.77899   0.44336   0.00000  Uiso   1.00
C1390  C     0.89268   0.82792   0.42589   0.00000  Uiso   1.00
C1391  C     0.91129   0.80408   0.43692   0.00000  Uiso   1.00
C1392  C     0.94134   0.78314   0.46193   0.00000  Uiso   1.00
C1393  C     0.92543   0.80621   0.44757   0.00000  Uiso   1.00
C1394  C     0.97962   0.85641   0.35068   0.00000  Uiso   1.00
C1395  C     0.08922   0.72490   0.38368   0.00000  Uiso   1.00
C1396  C     0.09682   0.76577   0.35390   0.00000  Uiso   1.00
C1397  C     0.08500   0.75078   0.37886   0.00000  Uiso   1.00
C1398  C     0.07881   0.70962   0.40886   0.00000  Uiso   1.00
C1399  C     0.04569   0.70924   0.45240   0.00000  Uiso   1.00
C1400  C     0.06208   0.72142   0.42813   0.00000  Uiso   1.00
C1401  C     0.06606   0.76362   0.39701   0.00000  Uiso   1.00
C1402  C     0.05444   0.74871   0.42213   0.00000  Uiso   1.00
H1403  H     0.88887   0.28453   0.21612   0.00000  Uiso   1.00
H1404  H     0.92847   0.25814   0.18911   0.00000  Uiso   1.00
H1405  H     0.96935   0.85889   0.36937   0.00000  Uiso   1.00
H1406  H     0.76337   0.19045   0.23094   0.00000  Uiso   1.00
H1407  H     0.06090   0.78421   0.39147   0.00000  Uiso   1.00
H1408  H     0.04005   0.75785   0.43650   0.00000  Uiso   1.00
H1409  H     0.10035   0.71712   0.36805   0.00000  Uiso   1.00
H1410  H     0.08360   0.68930   0.41321   0.00000  Uiso   1.00
H1411  H     0.04218   0.66144   0.37847   0.00000  Uiso   1.00
H1412  H     0.95542   0.78361   0.46637   0.00000  Uiso   1.00
H1413  H     0.92412   0.82499   0.44482   0.00000  Uiso   1.00
H1414  H     0.93237   0.73782   0.45616   0.00000  Uiso   1.00
H1415  H     0.89759   0.77689   0.43862   0.00000  Uiso   1.00
H1416  H     0.83583   0.14827   0.18909   0.00000  Uiso   1.00
Cr1417 Cr    0.49019   0.32034   0.65383   0.00000  Uiso   1.00
Cr1418 Cr    0.09320   0.26120   0.32188   0.00000  Uiso   1.00
O1419  O     0.09669   0.25550   0.29157   0.00000  Uiso   1.00
O1420  O     0.13921   0.18308   0.21552   0.00000  Uiso   1.00
O1421  O     0.32530   0.23226   0.12637   0.00000  Uiso   1.00
O1422  O     0.30566   0.25909   0.15044   0.00000  Uiso   1.00
O1423  O     0.47782   0.36816   0.67096   0.00000  Uiso   1.00
O1424  O     0.46912   0.35534   0.65081   0.00000  Uiso   1.00
O1425  O     0.33839   0.48645   0.71602   0.00000  Uiso   1.00
O1426  O     0.29930   0.48521   0.74576   0.00000  Uiso   1.00
O1427  O     0.37616   0.42134   0.82762   0.00000  Uiso   1.00
O1428  O     0.33646   0.41770   0.84968   0.00000  Uiso   1.00
O1429  O     0.28743   0.32532   0.83078   0.00000  Uiso   1.00
O1430  O     0.33483   0.36839   0.87274   0.00000  Uiso   1.00
O1431  O     0.29232   0.33721   0.75519   0.00000  Uiso   1.00
O1432  O     0.27216   0.34930   0.78959   0.00000  Uiso   1.00
O1433  O     0.30365   0.46250   0.68306   0.00000  Uiso   1.00
O1434  O     0.28166   0.46540   0.72510   0.00000  Uiso   1.00
F1435  F     0.07800   0.23371   0.34454   0.00000  Uiso   1.00
F1436  F     0.48356   0.32803   0.62144   0.00000  Uiso   1.00
C1437  C     0.11144   0.22530   0.26456   0.00000  Uiso   1.00
C1438  C     0.12016   0.20971   0.24924   0.00000  Uiso   1.00
C1439  C     0.31320   0.21435   0.19184   0.00000  Uiso   1.00
C1440  C     0.31104   0.23696   0.14832   0.00000  Uiso   1.00
C1441  C     0.31042   0.21449   0.17079   0.00000  Uiso   1.00
C1442  C     0.32002   0.18984   0.16734   0.00000  Uiso   1.00
C1443  C     0.43970   0.41662   0.66492   0.00000  Uiso   1.00
C1444  C     0.46563   0.37393   0.65697   0.00000  Uiso   1.00
C1445  C     0.44166   0.39611   0.65870   0.00000  Uiso   1.00
C1446  C     0.41839   0.39580   0.66026   0.00000  Uiso   1.00
C1447  C     0.35959   0.45632   0.75673   0.00000  Uiso   1.00
C1448  C     0.32265   0.48393   0.73919   0.00000  Uiso   1.00
C1449  C     0.33208   0.47008   0.75983   0.00000  Uiso   1.00
C1450  C     0.36720   0.44335   0.77899   0.00000  Uiso   1.00
C1451  C     0.35350   0.42591   0.82791   0.00000  Uiso   1.00
C1452  C     0.34771   0.43692   0.80408   0.00000  Uiso   1.00
C1453  C     0.31358   0.46195   0.78314   0.00000  Uiso   1.00
C1454  C     0.32079   0.44757   0.80620   0.00000  Uiso   1.00
C1455  C     0.30197   0.33901   0.85157   0.00000  Uiso   1.00
C1456  C     0.31329   0.35068   0.85641   0.00000  Uiso   1.00
C1457  C     0.30220   0.38367   0.72491   0.00000  Uiso   1.00
C1458  C     0.28349   0.35390   0.76578   0.00000  Uiso   1.00
C1459  C     0.28536   0.37886   0.75077   0.00000  Uiso   1.00
C1460  C     0.30271   0.40885   0.70963   0.00000  Uiso   1.00
C1461  C     0.29265   0.45240   0.70924   0.00000  Uiso   1.00
C1462  C     0.28836   0.42815   0.72142   0.00000  Uiso   1.00
C1463  C     0.27330   0.39701   0.76361   0.00000  Uiso   1.00
C1464  C     0.27471   0.42212   0.74870   0.00000  Uiso   1.00
H1465  H     0.11047   0.21613   0.28451   0.00000  Uiso   1.00
H1466  H     0.12428   0.18910   0.25814   0.00000  Uiso   1.00
H1467  H     0.28496   0.35061   0.84592   0.00000  Uiso   1.00
H1468  H     0.30238   0.36937   0.85888   0.00000  Uiso   1.00
H1469  H     0.31522   0.23094   0.19046   0.00000  Uiso   1.00
H1470  H     0.26340   0.39147   0.78422   0.00000  Uiso   1.00
H1471  H     0.26561   0.43649   0.75785   0.00000  Uiso   1.00
H1472  H     0.31447   0.36804   0.71713   0.00000  Uiso   1.00
H1473  H     0.31389   0.41322   0.68930   0.00000  Uiso   1.00
H1474  H     0.45512   0.41451   0.66938   0.00000  Uiso   1.00
H1475  H     0.41789   0.37848   0.66143   0.00000  Uiso   1.00
H1476  H     0.29459   0.46636   0.78361   0.00000  Uiso   1.00
H1477  H     0.30607   0.44481   0.82501   0.00000  Uiso   1.00
H1478  H     0.37362   0.45617   0.73783   0.00000  Uiso   1.00
H1479  H     0.38689   0.43862   0.77689   0.00000  Uiso   1.00
H1480  H     0.32682   0.18908   0.14828   0.00000  Uiso   1.00
Cr1481 Cr    0.65383   0.32035   0.49019   0.00000  Uiso   1.00
Cr1482 Cr    0.32188   0.26119   0.09320   0.00000  Uiso   1.00
O1483  O     0.29157   0.25551   0.09669   0.00000  Uiso   1.00
O1484  O     0.21553   0.18307   0.13922   0.00000  Uiso   1.00
O1485  O     0.12637   0.23226   0.32531   0.00000  Uiso   1.00
O1486  O     0.15044   0.25909   0.30566   0.00000  Uiso   1.00
O1487  O     0.67097   0.36815   0.47781   0.00000  Uiso   1.00
O1488  O     0.65081   0.35536   0.46912   0.00000  Uiso   1.00
O1489  O     0.71603   0.48646   0.33838   0.00000  Uiso   1.00
O1490  O     0.74575   0.48523   0.29931   0.00000  Uiso   1.00
O1491  O     0.82762   0.42133   0.37616   0.00000  Uiso   1.00
O1492  O     0.84967   0.41770   0.33645   0.00000  Uiso   1.00
O1493  O     0.83077   0.32533   0.28744   0.00000  Uiso   1.00
O1494  O     0.87272   0.36839   0.33484   0.00000  Uiso   1.00
O1495  O     0.75520   0.33722   0.29233   0.00000  Uiso   1.00
O1496  O     0.78961   0.34929   0.27216   0.00000  Uiso   1.00
O1497  O     0.68306   0.46250   0.30365   0.00000  Uiso   1.00
O1498  O     0.72510   0.46540   0.28167   0.00000  Uiso   1.00
C1499  C     0.26455   0.22531   0.11144   0.00000  Uiso   1.00
C1500  C     0.24924   0.20972   0.12016   0.00000  Uiso   1.00
C1501  C     0.19185   0.21434   0.31320   0.00000  Uiso   1.00
C1502  C     0.14831   0.23696   0.31104   0.00000  Uiso   1.00
C1503  C     0.17079   0.21449   0.31042   0.00000  Uiso   1.00
C1504  C     0.16733   0.18985   0.32002   0.00000  Uiso   1.00
C1505  C     0.66492   0.41662   0.43969   0.00000  Uiso   1.00
C1506  C     0.65696   0.37392   0.46563   0.00000  Uiso   1.00
C1507  C     0.65870   0.39612   0.44166   0.00000  Uiso   1.00
C1508  C     0.66026   0.39580   0.41841   0.00000  Uiso   1.00
C1509  C     0.75673   0.45633   0.35959   0.00000  Uiso   1.00
C1510  C     0.73918   0.48393   0.32266   0.00000  Uiso   1.00
C1511  C     0.75983   0.47009   0.33209   0.00000  Uiso   1.00
C1512  C     0.77898   0.44335   0.36721   0.00000  Uiso   1.00
C1513  C     0.82792   0.42589   0.35351   0.00000  Uiso   1.00
C1514  C     0.80408   0.43692   0.34770   0.00000  Uiso   1.00
C1515  C     0.78313   0.46195   0.31357   0.00000  Uiso   1.00
C1516  C     0.80622   0.44756   0.32078   0.00000  Uiso   1.00
C1517  C     0.85158   0.33901   0.30198   0.00000  Uiso   1.00
C1518  C     0.85641   0.35069   0.31330   0.00000  Uiso   1.00
C1519  C     0.72491   0.38368   0.30219   0.00000  Uiso   1.00
C1520  C     0.76579   0.35389   0.28350   0.00000  Uiso   1.00
C1521  C     0.75079   0.37885   0.28535   0.00000  Uiso   1.00
C1522  C     0.70963   0.40884   0.30272   0.00000  Uiso   1.00
C1523  C     0.70923   0.45240   0.29266   0.00000  Uiso   1.00
C1524  C     0.72141   0.42815   0.28835   0.00000  Uiso   1.00
C1525  C     0.76361   0.39702   0.27331   0.00000  Uiso   1.00
C1526  C     0.74872   0.42213   0.27471   0.00000  Uiso   1.00
H1527  H     0.28452   0.21613   0.11047   0.00000  Uiso   1.00
H1528  H     0.25814   0.18911   0.12427   0.00000  Uiso   1.00
H1529  H     0.84591   0.35061   0.28496   0.00000  Uiso   1.00
H1530  H     0.85889   0.36937   0.30239   0.00000  Uiso   1.00
H1531  H     0.19046   0.23093   0.31523   0.00000  Uiso   1.00
H1532  H     0.78422   0.39146   0.26341   0.00000  Uiso   1.00
H1533  H     0.75784   0.43650   0.26561   0.00000  Uiso   1.00
H1534  H     0.71713   0.36804   0.31447   0.00000  Uiso   1.00
H1535  H     0.68930   0.41320   0.31389   0.00000  Uiso   1.00
H1536  H     0.66938   0.41451   0.45513   0.00000  Uiso   1.00
H1537  H     0.66145   0.37848   0.41788   0.00000  Uiso   1.00
H1538  H     0.78361   0.46637   0.29459   0.00000  Uiso   1.00
H1539  H     0.82499   0.44481   0.30607   0.00000  Uiso   1.00
H1540  H     0.73782   0.45617   0.37362   0.00000  Uiso   1.00
H1541  H     0.77689   0.43861   0.38689   0.00000  Uiso   1.00
H1542  H     0.14827   0.18909   0.32681   0.00000  Uiso   1.00
Cr1543 Cr    0.32035   0.65382   0.03563   0.00000  Uiso   1.00
Cr1544 Cr    0.26119   0.32189   0.82372   0.00000  Uiso   1.00
O1545  O     0.25551   0.29157   0.85623   0.00000  Uiso   1.00
O1546  O     0.18306   0.21553   0.96220   0.00000  Uiso   1.00
O1547  O     0.23227   0.12637   0.81606   0.00000  Uiso   1.00
O1548  O     0.25910   0.15045   0.78480   0.00000  Uiso   1.00
O1549  O     0.36816   0.67096   0.98305   0.00000  Uiso   1.00
O1550  O     0.35535   0.65081   0.02471   0.00000  Uiso   1.00
O1551  O     0.48645   0.71603   0.95914   0.00000  Uiso   1.00
O1552  O     0.48521   0.74576   0.96972   0.00000  Uiso   1.00
O1553  O     0.42134   0.82761   0.87488   0.00000  Uiso   1.00
O1554  O     0.41769   0.84968   0.89617   0.00000  Uiso   1.00
O1555  O     0.32532   0.83078   0.05646   0.00000  Uiso   1.00
O1556  O     0.36838   0.87272   0.92406   0.00000  Uiso   1.00
O1557  O     0.33723   0.75519   0.11526   0.00000  Uiso   1.00
O1558  O     0.34931   0.78960   0.08893   0.00000  Uiso   1.00
O1559  O     0.46251   0.68306   0.05077   0.00000  Uiso   1.00
O1560  O     0.46540   0.72511   0.02783   0.00000  Uiso   1.00
F1561  F     0.23371   0.34455   0.84376   0.00000  Uiso   1.00
C1562  C     0.22530   0.26455   0.89870   0.00000  Uiso   1.00
C1563  C     0.20972   0.24924   0.92088   0.00000  Uiso   1.00
C1564  C     0.21434   0.19185   0.78061   0.00000  Uiso   1.00
C1565  C     0.23698   0.14830   0.80369   0.00000  Uiso   1.00
C1566  C     0.21449   0.17079   0.80431   0.00000  Uiso   1.00
C1567  C     0.18986   0.16733   0.82279   0.00000  Uiso   1.00
C1568  C     0.37392   0.65695   0.00349   0.00000  Uiso   1.00
C1569  C     0.39611   0.65870   0.00353   0.00000  Uiso   1.00
C1570  C     0.39581   0.66026   0.02553   0.00000  Uiso   1.00
C1571  C     0.45633   0.75672   0.92735   0.00000  Uiso   1.00
C1572  C     0.48393   0.73918   0.95423   0.00000  Uiso   1.00
C1573  C     0.47009   0.75983   0.93799   0.00000  Uiso   1.00
C1574  C     0.44335   0.77898   0.91045   0.00000  Uiso   1.00
C1575  C     0.42590   0.82792   0.89268   0.00000  Uiso   1.00
C1576  C     0.43692   0.80408   0.91129   0.00000  Uiso   1.00
C1577  C     0.46194   0.78313   0.94134   0.00000  Uiso   1.00
C1578  C     0.44757   0.80621   0.92542   0.00000  Uiso   1.00
C1579  C     0.35069   0.85641   0.97960   0.00000  Uiso   1.00
C1580  C     0.38368   0.72489   0.08922   0.00000  Uiso   1.00
C1581  C     0.35390   0.76578   0.09683   0.00000  Uiso   1.00
C1582  C     0.37887   0.75078   0.08500   0.00000  Uiso   1.00
C1583  C     0.40885   0.70962   0.07882   0.00000  Uiso   1.00
C1584  C     0.45239   0.70925   0.04570   0.00000  Uiso   1.00
C1585  C     0.42815   0.72141   0.06208   0.00000  Uiso   1.00
C1586  C     0.39702   0.76362   0.06605   0.00000  Uiso   1.00
C1587  C     0.42213   0.74870   0.05445   0.00000  Uiso   1.00
H1588  H     0.21613   0.28453   0.88888   0.00000  Uiso   1.00
H1589  H     0.18910   0.25815   0.92848   0.00000  Uiso   1.00
H1590  H     0.36937   0.85888   0.96937   0.00000  Uiso   1.00
H1591  H     0.23093   0.19047   0.76336   0.00000  Uiso   1.00
H1592  H     0.39146   0.78420   0.06091   0.00000  Uiso   1.00
H1593  H     0.43651   0.75784   0.04005   0.00000  Uiso   1.00
H1594  H     0.36804   0.71712   0.10035   0.00000  Uiso   1.00
H1595  H     0.41322   0.68930   0.08359   0.00000  Uiso   1.00
H1596  H     0.37846   0.66145   0.04220   0.00000  Uiso   1.00
H1597  H     0.46637   0.78360   0.95543   0.00000  Uiso   1.00
H1598  H     0.44481   0.82500   0.92411   0.00000  Uiso   1.00
H1599  H     0.45616   0.73783   0.93238   0.00000  Uiso   1.00
H1600  H     0.43862   0.77690   0.89759   0.00000  Uiso   1.00
H1601  H     0.18910   0.14827   0.83582   0.00000  Uiso   1.00
Cr1602 Cr    0.49018   0.03564   0.65383   0.00000  Uiso   1.00
Cr1603 Cr    0.09319   0.82373   0.32188   0.00000  Uiso   1.00
O1604  O     0.16185   0.19888   0.01852   0.00000  Uiso   1.00
O1605  O     0.09669   0.85623   0.29157   0.00000  Uiso   1.00
O1606  O     0.13922   0.96219   0.21552   0.00000  Uiso   1.00
O1607  O     0.32530   0.81606   0.12637   0.00000  Uiso   1.00
O1608  O     0.30566   0.78481   0.15044   0.00000  Uiso   1.00
O1609  O     0.47782   0.98305   0.67096   0.00000  Uiso   1.00
O1610  O     0.46913   0.02472   0.65081   0.00000  Uiso   1.00
O1611  O     0.33839   0.95914   0.71602   0.00000  Uiso   1.00
O1612  O     0.29930   0.96971   0.74576   0.00000  Uiso   1.00
O1613  O     0.37616   0.87488   0.82762   0.00000  Uiso   1.00
O1614  O     0.33646   0.89615   0.84968   0.00000  Uiso   1.00
O1615  O     0.28745   0.05646   0.83078   0.00000  Uiso   1.00
O1616  O     0.33482   0.92404   0.87274   0.00000  Uiso   1.00
O1617  O     0.29232   0.11526   0.75519   0.00000  Uiso   1.00
O1618  O     0.27216   0.08895   0.78959   0.00000  Uiso   1.00
O1619  O     0.30366   0.05077   0.68306   0.00000  Uiso   1.00
O1620  O     0.28166   0.02785   0.72510   0.00000  Uiso   1.00
C1621  C     0.16044   0.20087   0.05814   0.00000  Uiso   1.00
C1622  C     0.11144   0.89869   0.26456   0.00000  Uiso   1.00
C1623  C     0.12017   0.92087   0.24924   0.00000  Uiso   1.00
C1624  C     0.31320   0.78062   0.19184   0.00000  Uiso   1.00
C1625  C     0.31103   0.80369   0.14832   0.00000  Uiso   1.00
C1626  C     0.31042   0.80430   0.17079   0.00000  Uiso   1.00
C1627  C     0.32003   0.82278   0.16734   0.00000  Uiso   1.00
C1628  C     0.46564   0.00348   0.65697   0.00000  Uiso   1.00
C1629  C     0.44166   0.00353   0.65870   0.00000  Uiso   1.00
C1630  C     0.41840   0.02554   0.66026   0.00000  Uiso   1.00
C1631  C     0.35958   0.92735   0.75673   0.00000  Uiso   1.00
C1632  C     0.32264   0.95422   0.73919   0.00000  Uiso   1.00
C1633  C     0.33209   0.93799   0.75983   0.00000  Uiso   1.00
C1634  C     0.36720   0.91045   0.77899   0.00000  Uiso   1.00
C1635  C     0.35350   0.89268   0.82791   0.00000  Uiso   1.00
C1636  C     0.34769   0.91130   0.80408   0.00000  Uiso   1.00
C1637  C     0.31357   0.94134   0.78314   0.00000  Uiso   1.00
C1638  C     0.32078   0.92544   0.80620   0.00000  Uiso   1.00
C1639  C     0.31329   0.97961   0.85641   0.00000  Uiso   1.00
C1640  C     0.30220   0.08921   0.72491   0.00000  Uiso   1.00
C1641  C     0.28350   0.09683   0.76578   0.00000  Uiso   1.00
C1642  C     0.28536   0.08500   0.75077   0.00000  Uiso   1.00
C1643  C     0.30271   0.07881   0.70963   0.00000  Uiso   1.00
C1644  C     0.29266   0.04570   0.70924   0.00000  Uiso   1.00
C1645  C     0.28836   0.06208   0.72142   0.00000  Uiso   1.00
C1646  C     0.27331   0.06605   0.76361   0.00000  Uiso   1.00
C1647  C     0.27471   0.05445   0.74870   0.00000  Uiso   1.00
H1648  H     0.11047   0.88888   0.28451   0.00000  Uiso   1.00
H1649  H     0.12428   0.92847   0.25814   0.00000  Uiso   1.00
H1650  H     0.30238   0.96936   0.85888   0.00000  Uiso   1.00
H1651  H     0.14469   0.21311   0.05056   0.00000  Uiso   1.00
H1652  H     0.31523   0.76336   0.19046   0.00000  Uiso   1.00
H1653  H     0.26340   0.06092   0.78422   0.00000  Uiso   1.00
H1654  H     0.26560   0.04005   0.75785   0.00000  Uiso   1.00
H1655  H     0.31448   0.10035   0.71713   0.00000  Uiso   1.00
H1656  H     0.31389   0.08359   0.68930   0.00000  Uiso   1.00
H1657  H     0.41789   0.04220   0.66143   0.00000  Uiso   1.00
H1658  H     0.29458   0.95542   0.78361   0.00000  Uiso   1.00
H1659  H     0.30606   0.92411   0.82501   0.00000  Uiso   1.00
H1660  H     0.37362   0.93237   0.73783   0.00000  Uiso   1.00
H1661  H     0.38688   0.89759   0.77689   0.00000  Uiso   1.00
H1662  H     0.32681   0.83582   0.14828   0.00000  Uiso   1.00
Cr1663 Cr    0.03562   0.49019   0.32036   0.00000  Uiso   1.00
Cr1664 Cr    0.82373   0.09319   0.26120   0.00000  Uiso   1.00
O1665  O     0.19887   0.16186   0.12076   0.00000  Uiso   1.00
O1666  O     0.85622   0.09669   0.25551   0.00000  Uiso   1.00
O1667  O     0.96219   0.13921   0.18307   0.00000  Uiso   1.00
O1668  O     0.81607   0.32529   0.23226   0.00000  Uiso   1.00
O1669  O     0.78480   0.30566   0.25908   0.00000  Uiso   1.00
O1670  O     0.98306   0.47782   0.36816   0.00000  Uiso   1.00
O1671  O     0.02471   0.46914   0.35534   0.00000  Uiso   1.00
O1672  O     0.95913   0.33839   0.48645   0.00000  Uiso   1.00
O1673  O     0.96972   0.29929   0.48522   0.00000  Uiso   1.00
O1674  O     0.87489   0.37616   0.42133   0.00000  Uiso   1.00
O1675  O     0.89615   0.33646   0.41771   0.00000  Uiso   1.00
O1676  O     0.05646   0.28743   0.32533   0.00000  Uiso   1.00
O1677  O     0.92404   0.33482   0.36840   0.00000  Uiso   1.00
O1678  O     0.11526   0.29233   0.33721   0.00000  Uiso   1.00
O1679  O     0.08893   0.27217   0.34930   0.00000  Uiso   1.00
O1680  O     0.05079   0.30365   0.46250   0.00000  Uiso   1.00
O1681  O     0.02784   0.28166   0.46540   0.00000  Uiso   1.00
F1682  F     0.84375   0.07799   0.23370   0.00000  Uiso   1.00
C1683  C     0.20087   0.16045   0.08055   0.00000  Uiso   1.00
C1684  C     0.89870   0.11144   0.22530   0.00000  Uiso   1.00
C1685  C     0.92088   0.12017   0.20971   0.00000  Uiso   1.00
C1686  C     0.78061   0.31321   0.21433   0.00000  Uiso   1.00
C1687  C     0.80369   0.31102   0.23698   0.00000  Uiso   1.00
C1688  C     0.80431   0.31042   0.21449   0.00000  Uiso   1.00
C1689  C     0.82278   0.32002   0.18985   0.00000  Uiso   1.00
C1690  C     0.00348   0.46565   0.37391   0.00000  Uiso   1.00
C1691  C     0.00352   0.44166   0.39611   0.00000  Uiso   1.00
C1692  C     0.02554   0.41841   0.39580   0.00000  Uiso   1.00
C1693  C     0.92735   0.35958   0.45634   0.00000  Uiso   1.00
C1694  C     0.95422   0.32264   0.48393   0.00000  Uiso   1.00
C1695  C     0.93799   0.33208   0.47010   0.00000  Uiso   1.00
C1696  C     0.91044   0.36720   0.44336   0.00000  Uiso   1.00
C1697  C     0.89268   0.35351   0.42589   0.00000  Uiso   1.00
C1698  C     0.91130   0.34770   0.43692   0.00000  Uiso   1.00
C1699  C     0.94133   0.31358   0.46193   0.00000  Uiso   1.00
C1700  C     0.92543   0.32079   0.44757   0.00000  Uiso   1.00
C1701  C     0.00743   0.30198   0.33901   0.00000  Uiso   1.00
C1702  C     0.97962   0.31329   0.35068   0.00000  Uiso   1.00
C1703  C     0.08922   0.30220   0.38368   0.00000  Uiso   1.00
C1704  C     0.09682   0.28350   0.35390   0.00000  Uiso   1.00
C1705  C     0.08500   0.28535   0.37886   0.00000  Uiso   1.00
C1706  C     0.07882   0.30270   0.40886   0.00000  Uiso   1.00
C1707  C     0.04570   0.29267   0.45240   0.00000  Uiso   1.00
C1708  C     0.06209   0.28835   0.42813   0.00000  Uiso   1.00
C1709  C     0.06607   0.27330   0.39701   0.00000  Uiso   1.00
C1710  C     0.05445   0.27470   0.42213   0.00000  Uiso   1.00
H1711  H     0.88889   0.11046   0.21612   0.00000  Uiso   1.00
H1712  H     0.92848   0.12426   0.18911   0.00000  Uiso   1.00
H1713  H     0.01852   0.28496   0.35060   0.00000  Uiso   1.00
H1714  H     0.96936   0.30237   0.36937   0.00000  Uiso   1.00
H1715  H     0.21310   0.14470   0.09164   0.00000  Uiso   1.00
H1716  H     0.76337   0.31524   0.23094   0.00000  Uiso   1.00
H1717  H     0.06091   0.26340   0.39147   0.00000  Uiso   1.00
H1718  H     0.04006   0.26559   0.43650   0.00000  Uiso   1.00
H1719  H     0.10036   0.31446   0.36805   0.00000  Uiso   1.00
H1720  H     0.08359   0.31389   0.41320   0.00000  Uiso   1.00
H1721  H     0.04219   0.41790   0.37847   0.00000  Uiso   1.00
H1722  H     0.95542   0.29459   0.46637   0.00000  Uiso   1.00
H1723  H     0.92411   0.30607   0.44482   0.00000  Uiso   1.00
H1724  H     0.93237   0.37363   0.45616   0.00000  Uiso   1.00
H1725  H     0.89759   0.38688   0.43862   0.00000  Uiso   1.00
H1726  H     0.83581   0.32682   0.18909   0.00000  Uiso   1.00
Cr1727 Cr    0.49019   0.65382   0.32036   0.00000  Uiso   1.00
Cr1728 Cr    0.09320   0.32187   0.26120   0.00000  Uiso   1.00
O1729  O     0.09669   0.29156   0.25551   0.00000  Uiso   1.00
O1730  O     0.13921   0.21553   0.18307   0.00000  Uiso   1.00
O1731  O     0.32529   0.12638   0.23226   0.00000  Uiso   1.00
O1732  O     0.30565   0.15046   0.25908   0.00000  Uiso   1.00
O1733  O     0.47781   0.67096   0.36816   0.00000  Uiso   1.00
O1734  O     0.46912   0.65082   0.35534   0.00000  Uiso   1.00
O1735  O     0.33839   0.71602   0.48645   0.00000  Uiso   1.00
O1736  O     0.29929   0.74576   0.48522   0.00000  Uiso   1.00
O1737  O     0.37616   0.82762   0.42133   0.00000  Uiso   1.00
O1738  O     0.33645   0.84968   0.41771   0.00000  Uiso   1.00
O1739  O     0.28743   0.83077   0.32533   0.00000  Uiso   1.00
O1740  O     0.33483   0.87274   0.36840   0.00000  Uiso   1.00
O1741  O     0.29232   0.75520   0.33721   0.00000  Uiso   1.00
O1742  O     0.27217   0.78960   0.34930   0.00000  Uiso   1.00
O1743  O     0.30365   0.68307   0.46250   0.00000  Uiso   1.00
O1744  O     0.28166   0.72510   0.46540   0.00000  Uiso   1.00
C1745  C     0.11143   0.26456   0.22530   0.00000  Uiso   1.00
C1746  C     0.12016   0.24924   0.20971   0.00000  Uiso   1.00
C1747  C     0.31321   0.19184   0.21433   0.00000  Uiso   1.00
C1748  C     0.31103   0.14831   0.23698   0.00000  Uiso   1.00
C1749  C     0.31042   0.17078   0.21449   0.00000  Uiso   1.00
C1750  C     0.32003   0.16733   0.18985   0.00000  Uiso   1.00
C1751  C     0.43971   0.66492   0.41662   0.00000  Uiso   1.00
C1752  C     0.46564   0.65695   0.37391   0.00000  Uiso   1.00
C1753  C     0.44166   0.65870   0.39611   0.00000  Uiso   1.00
C1754  C     0.41839   0.66026   0.39580   0.00000  Uiso   1.00
C1755  C     0.35959   0.75673   0.45634   0.00000  Uiso   1.00
C1756  C     0.32265   0.73919   0.48393   0.00000  Uiso   1.00
C1757  C     0.33208   0.75982   0.47010   0.00000  Uiso   1.00
C1758  C     0.36720   0.77899   0.44336   0.00000  Uiso   1.00
C1759  C     0.35351   0.82792   0.42589   0.00000  Uiso   1.00
C1760  C     0.34770   0.80408   0.43692   0.00000  Uiso   1.00
C1761  C     0.31359   0.78314   0.46193   0.00000  Uiso   1.00
C1762  C     0.32079   0.80621   0.44757   0.00000  Uiso   1.00
C1763  C     0.30198   0.85157   0.33901   0.00000  Uiso   1.00
C1764  C     0.31329   0.85641   0.35068   0.00000  Uiso   1.00
C1765  C     0.30220   0.72490   0.38368   0.00000  Uiso   1.00
C1766  C     0.28350   0.76577   0.35390   0.00000  Uiso   1.00
C1767  C     0.28535   0.75078   0.37886   0.00000  Uiso   1.00
C1768  C     0.30271   0.70962   0.40886   0.00000  Uiso   1.00
C1769  C     0.29266   0.70924   0.45240   0.00000  Uiso   1.00
C1770  C     0.28837   0.72142   0.42813   0.00000  Uiso   1.00
C1771  C     0.27330   0.76362   0.39701   0.00000  Uiso   1.00
C1772  C     0.27470   0.74871   0.42213   0.00000  Uiso   1.00
H1773  H     0.11046   0.28453   0.21612   0.00000  Uiso   1.00
H1774  H     0.12427   0.25814   0.18911   0.00000  Uiso   1.00
H1775  H     0.28497   0.84592   0.35060   0.00000  Uiso   1.00
H1776  H     0.30237   0.85889   0.36937   0.00000  Uiso   1.00
H1777  H     0.31523   0.19045   0.23094   0.00000  Uiso   1.00
H1778  H     0.26342   0.78421   0.39147   0.00000  Uiso   1.00
H1779  H     0.26561   0.75785   0.43650   0.00000  Uiso   1.00
H1780  H     0.31447   0.71712   0.36805   0.00000  Uiso   1.00
H1781  H     0.31390   0.68930   0.41321   0.00000  Uiso   1.00
H1782  H     0.45512   0.66939   0.41451   0.00000  Uiso   1.00
H1783  H     0.41788   0.66144   0.37847   0.00000  Uiso   1.00
H1784  H     0.29458   0.78361   0.46637   0.00000  Uiso   1.00
H1785  H     0.30607   0.82499   0.44482   0.00000  Uiso   1.00
H1786  H     0.37363   0.73782   0.45616   0.00000  Uiso   1.00
H1787  H     0.38688   0.77689   0.43862   0.00000  Uiso   1.00
H1788  H     0.32682   0.14827   0.18909   0.00000  Uiso   1.00
Cr1789 Cr    0.03564   0.32034   0.65383   0.00000  Uiso   1.00
Cr1790 Cr    0.82372   0.26120   0.32188   0.00000  Uiso   1.00
O1791  O     0.85624   0.25551   0.29157   0.00000  Uiso   1.00
O1792  O     0.96219   0.18308   0.21552   0.00000  Uiso   1.00
O1793  O     0.81606   0.23226   0.12637   0.00000  Uiso   1.00
O1794  O     0.78481   0.25909   0.15044   0.00000  Uiso   1.00
O1795  O     0.98305   0.36816   0.67096   0.00000  Uiso   1.00
O1796  O     0.02471   0.35534   0.65081   0.00000  Uiso   1.00
O1797  O     0.95912   0.48645   0.71602   0.00000  Uiso   1.00
O1798  O     0.96971   0.48521   0.74576   0.00000  Uiso   1.00
O1799  O     0.87489   0.42134   0.82762   0.00000  Uiso   1.00
O1800  O     0.89616   0.41770   0.84968   0.00000  Uiso   1.00
O1801  O     0.05647   0.32532   0.83078   0.00000  Uiso   1.00
O1802  O     0.92404   0.36839   0.87274   0.00000  Uiso   1.00
O1803  O     0.11527   0.33721   0.75519   0.00000  Uiso   1.00
O1804  O     0.08894   0.34930   0.78959   0.00000  Uiso   1.00
O1805  O     0.05077   0.46250   0.68306   0.00000  Uiso   1.00
O1806  O     0.02784   0.46540   0.72510   0.00000  Uiso   1.00
F1807  F     0.84375   0.23371   0.34454   0.00000  Uiso   1.00
C1808  C     0.89871   0.22530   0.26456   0.00000  Uiso   1.00
C1809  C     0.92089   0.20971   0.24924   0.00000  Uiso   1.00
C1810  C     0.78061   0.21435   0.19184   0.00000  Uiso   1.00
C1811  C     0.80369   0.23696   0.14832   0.00000  Uiso   1.00
C1812  C     0.80430   0.21449   0.17079   0.00000  Uiso   1.00
C1813  C     0.82279   0.18984   0.16734   0.00000  Uiso   1.00
C1814  C     0.00348   0.37393   0.65697   0.00000  Uiso   1.00
C1815  C     0.00353   0.39611   0.65870   0.00000  Uiso   1.00
C1816  C     0.02554   0.39580   0.66026   0.00000  Uiso   1.00
C1817  C     0.92735   0.45632   0.75673   0.00000  Uiso   1.00
C1818  C     0.95423   0.48393   0.73919   0.00000  Uiso   1.00
C1819  C     0.93799   0.47008   0.75983   0.00000  Uiso   1.00
C1820  C     0.91044   0.44335   0.77899   0.00000  Uiso   1.00
C1821  C     0.89268   0.42591   0.82791   0.00000  Uiso   1.00
C1822  C     0.91130   0.43692   0.80408   0.00000  Uiso   1.00
C1823  C     0.94133   0.46194   0.78314   0.00000  Uiso   1.00
C1824  C     0.92544   0.44757   0.80620   0.00000  Uiso   1.00
C1825  C     0.97962   0.35068   0.85640   0.00000  Uiso   1.00
C1826  C     0.08922   0.38367   0.72491   0.00000  Uiso   1.00
C1827  C     0.09681   0.35390   0.76578   0.00000  Uiso   1.00
C1828  C     0.08501   0.37886   0.75077   0.00000  Uiso   1.00
C1829  C     0.07881   0.40885   0.70963   0.00000  Uiso   1.00
C1830  C     0.04569   0.45240   0.70924   0.00000  Uiso   1.00
C1831  C     0.06207   0.42815   0.72142   0.00000  Uiso   1.00
C1832  C     0.06606   0.39701   0.76361   0.00000  Uiso   1.00
C1833  C     0.05445   0.42212   0.74870   0.00000  Uiso   1.00
H1834  H     0.88889   0.21613   0.28451   0.00000  Uiso   1.00
H1835  H     0.92848   0.18910   0.25814   0.00000  Uiso   1.00
H1836  H     0.96936   0.36937   0.85888   0.00000  Uiso   1.00
H1837  H     0.76336   0.23094   0.19046   0.00000  Uiso   1.00
H1838  H     0.06090   0.39147   0.78422   0.00000  Uiso   1.00
H1839  H     0.04005   0.43649   0.75785   0.00000  Uiso   1.00
H1840  H     0.10035   0.36804   0.71713   0.00000  Uiso   1.00
H1841  H     0.08359   0.41322   0.68930   0.00000  Uiso   1.00
H1842  H     0.04219   0.37848   0.66143   0.00000  Uiso   1.00
H1843  H     0.95542   0.46636   0.78361   0.00000  Uiso   1.00
H1844  H     0.92411   0.44481   0.82501   0.00000  Uiso   1.00
H1845  H     0.93236   0.45617   0.73783   0.00000  Uiso   1.00
H1846  H     0.89759   0.43862   0.77689   0.00000  Uiso   1.00
H1847  H     0.83582   0.18908   0.14828   0.00000  Uiso   1.00
Cr1848 Cr    0.65383   0.49019   0.03563   0.00000  Uiso   1.00
Cr1849 Cr    0.32188   0.09321   0.82372   0.00000  Uiso   1.00
O1850  O     0.01851   0.16186   0.19888   0.00000  Uiso   1.00
O1851  O     0.29157   0.09668   0.85623   0.00000  Uiso   1.00
O1852  O     0.21553   0.13920   0.96220   0.00000  Uiso   1.00
O1853  O     0.12637   0.32530   0.81606   0.00000  Uiso   1.00
O1854  O     0.15045   0.30564   0.78480   0.00000  Uiso   1.00
O1855  O     0.67097   0.47781   0.98305   0.00000  Uiso   1.00
O1856  O     0.65080   0.46913   0.02471   0.00000  Uiso   1.00
O1857  O     0.71603   0.33838   0.95914   0.00000  Uiso   1.00
O1858  O     0.74576   0.29929   0.96972   0.00000  Uiso   1.00
O1859  O     0.82761   0.37617   0.87488   0.00000  Uiso   1.00
O1860  O     0.84968   0.33646   0.89617   0.00000  Uiso   1.00
O1861  O     0.83077   0.28744   0.05646   0.00000  Uiso   1.00
O1862  O     0.87273   0.33482   0.92406   0.00000  Uiso   1.00
O1863  O     0.75520   0.29232   0.11526   0.00000  Uiso   1.00
O1864  O     0.78960   0.27217   0.08893   0.00000  Uiso   1.00
O1865  O     0.68306   0.30367   0.05077   0.00000  Uiso   1.00
O1866  O     0.72511   0.28166   0.02783   0.00000  Uiso   1.00
F1867  F     0.62142   0.48357   0.06697   0.00000  Uiso   1.00
C1868  C     0.05814   0.16046   0.20086   0.00000  Uiso   1.00
C1869  C     0.26456   0.11143   0.89870   0.00000  Uiso   1.00
C1870  C     0.24925   0.12016   0.92088   0.00000  Uiso   1.00
C1871  C     0.19185   0.31320   0.78061   0.00000  Uiso   1.00
C1872  C     0.14831   0.31104   0.80369   0.00000  Uiso   1.00
C1873  C     0.17079   0.31041   0.80431   0.00000  Uiso   1.00
C1874  C     0.16733   0.32003   0.82278   0.00000  Uiso   1.00
C1875  C     0.65695   0.46564   0.00349   0.00000  Uiso   1.00
C1876  C     0.65870   0.44165   0.00353   0.00000  Uiso   1.00
C1877  C     0.66026   0.41840   0.02553   0.00000  Uiso   1.00
C1878  C     0.75672   0.35960   0.92735   0.00000  Uiso   1.00
C1879  C     0.73919   0.32265   0.95423   0.00000  Uiso   1.00
C1880  C     0.75982   0.33209   0.93799   0.00000  Uiso   1.00
C1881  C     0.77899   0.36721   0.91045   0.00000  Uiso   1.00
C1882  C     0.82792   0.35349   0.89268   0.00000  Uiso   1.00
C1883  C     0.80409   0.34769   0.91129   0.00000  Uiso   1.00
C1884  C     0.78313   0.31359   0.94134   0.00000  Uiso   1.00
C1885  C     0.80621   0.32079   0.92542   0.00000  Uiso   1.00
C1886  C     0.85642   0.31329   0.97960   0.00000  Uiso   1.00
C1887  C     0.72489   0.30221   0.08922   0.00000  Uiso   1.00
C1888  C     0.76577   0.28350   0.09683   0.00000  Uiso   1.00
C1889  C     0.75079   0.28535   0.08500   0.00000  Uiso   1.00
C1890  C     0.70962   0.30270   0.07882   0.00000  Uiso   1.00
C1891  C     0.70924   0.29266   0.04570   0.00000  Uiso   1.00
C1892  C     0.72142   0.28836   0.06208   0.00000  Uiso   1.00
C1893  C     0.76361   0.27331   0.06605   0.00000  Uiso   1.00
C1894  C     0.74870   0.27471   0.05445   0.00000  Uiso   1.00
H1895  H     0.28453   0.11046   0.88888   0.00000  Uiso   1.00
H1896  H     0.25814   0.12427   0.92848   0.00000  Uiso   1.00
H1897  H     0.85889   0.30237   0.96937   0.00000  Uiso   1.00
H1898  H     0.05056   0.14469   0.21310   0.00000  Uiso   1.00
H1899  H     0.19046   0.31523   0.76336   0.00000  Uiso   1.00
H1900  H     0.78421   0.26341   0.06091   0.00000  Uiso   1.00
H1901  H     0.75785   0.26560   0.04005   0.00000  Uiso   1.00
H1902  H     0.71713   0.31447   0.10035   0.00000  Uiso   1.00
H1903  H     0.68930   0.31390   0.08359   0.00000  Uiso   1.00
H1904  H     0.66144   0.41790   0.04220   0.00000  Uiso   1.00
H1905  H     0.78360   0.29459   0.95543   0.00000  Uiso   1.00
H1906  H     0.82500   0.30606   0.92411   0.00000  Uiso   1.00
H1907  H     0.73781   0.37363   0.93238   0.00000  Uiso   1.00
H1908  H     0.77691   0.38688   0.89759   0.00000  Uiso   1.00
H1909  H     0.14827   0.32680   0.83582   0.00000  Uiso   1.00
Cr1910 Cr    0.32035   0.03563   0.49019   0.00000  Uiso   1.00
Cr1911 Cr    0.26120   0.82371   0.09320   0.00000  Uiso   1.00
O1912  O     0.12077   0.19888   0.16184   0.00000  Uiso   1.00
O1913  O     0.25551   0.85623   0.09669   0.00000  Uiso   1.00
O1914  O     0.18306   0.96219   0.13922   0.00000  Uiso   1.00
O1915  O     0.23226   0.81606   0.32531   0.00000  Uiso   1.00
O1916  O     0.25908   0.78481   0.30566   0.00000  Uiso   1.00
O1917  O     0.36816   0.98306   0.47781   0.00000  Uiso   1.00
O1918  O     0.35536   0.02471   0.46912   0.00000  Uiso   1.00
O1919  O     0.48645   0.95913   0.33838   0.00000  Uiso   1.00
O1920  O     0.48523   0.96971   0.29931   0.00000  Uiso   1.00
O1921  O     0.42135   0.87487   0.37616   0.00000  Uiso   1.00
O1922  O     0.41770   0.89615   0.33645   0.00000  Uiso   1.00
O1923  O     0.32531   0.05646   0.28744   0.00000  Uiso   1.00
O1924  O     0.36839   0.92405   0.33484   0.00000  Uiso   1.00
O1925  O     0.33722   0.11525   0.29233   0.00000  Uiso   1.00
O1926  O     0.34931   0.08894   0.27216   0.00000  Uiso   1.00
O1927  O     0.46250   0.05078   0.30365   0.00000  Uiso   1.00
O1928  O     0.46539   0.02785   0.28167   0.00000  Uiso   1.00
C1929  C     0.08054   0.20086   0.16046   0.00000  Uiso   1.00
C1930  C     0.22529   0.89870   0.11144   0.00000  Uiso   1.00
C1931  C     0.20972   0.92088   0.12016   0.00000  Uiso   1.00
C1932  C     0.21434   0.78063   0.31320   0.00000  Uiso   1.00
C1933  C     0.23697   0.80369   0.31104   0.00000  Uiso   1.00
C1934  C     0.21449   0.80430   0.31042   0.00000  Uiso   1.00
C1935  C     0.18985   0.82278   0.32002   0.00000  Uiso   1.00
C1936  C     0.37393   0.00348   0.46563   0.00000  Uiso   1.00
C1937  C     0.39613   0.00351   0.44166   0.00000  Uiso   1.00
C1938  C     0.39580   0.02554   0.41841   0.00000  Uiso   1.00
C1939  C     0.45633   0.92734   0.35959   0.00000  Uiso   1.00
C1940  C     0.48393   0.95423   0.32266   0.00000  Uiso   1.00
C1941  C     0.47009   0.93798   0.33209   0.00000  Uiso   1.00
C1942  C     0.44335   0.91045   0.36721   0.00000  Uiso   1.00
C1943  C     0.42589   0.89267   0.35351   0.00000  Uiso   1.00
C1944  C     0.43693   0.91130   0.34770   0.00000  Uiso   1.00
C1945  C     0.46194   0.94134   0.31357   0.00000  Uiso   1.00
C1946  C     0.44756   0.92543   0.32078   0.00000  Uiso   1.00
C1947  C     0.33901   0.00744   0.30198   0.00000  Uiso   1.00
C1948  C     0.35068   0.97961   0.31330   0.00000  Uiso   1.00
C1949  C     0.38369   0.08921   0.30219   0.00000  Uiso   1.00
C1950  C     0.35390   0.09682   0.28350   0.00000  Uiso   1.00
C1951  C     0.37886   0.08500   0.28535   0.00000  Uiso   1.00
C1952  C     0.40884   0.07880   0.30272   0.00000  Uiso   1.00
C1953  C     0.45240   0.04570   0.29266   0.00000  Uiso   1.00
C1954  C     0.42814   0.06207   0.28835   0.00000  Uiso   1.00
C1955  C     0.39701   0.06606   0.27331   0.00000  Uiso   1.00
C1956  C     0.42214   0.05444   0.27471   0.00000  Uiso   1.00
H1957  H     0.21613   0.88887   0.11047   0.00000  Uiso   1.00
H1958  H     0.18910   0.92848   0.12427   0.00000  Uiso   1.00
H1959  H     0.35061   0.01850   0.28496   0.00000  Uiso   1.00
H1960  H     0.36936   0.96936   0.30239   0.00000  Uiso   1.00
H1961  H     0.09165   0.21310   0.14469   0.00000  Uiso   1.00
H1962  H     0.23094   0.76337   0.31523   0.00000  Uiso   1.00
H1963  H     0.39147   0.06091   0.26341   0.00000  Uiso   1.00
H1964  H     0.43649   0.04005   0.26561   0.00000  Uiso   1.00
H1965  H     0.36805   0.10036   0.31447   0.00000  Uiso   1.00
H1966  H     0.41321   0.08359   0.31389   0.00000  Uiso   1.00
H1967  H     0.37847   0.04220   0.41788   0.00000  Uiso   1.00
H1968  H     0.46637   0.95542   0.29459   0.00000  Uiso   1.00
H1969  H     0.44480   0.92412   0.30607   0.00000  Uiso   1.00
H1970  H     0.45617   0.93237   0.37362   0.00000  Uiso   1.00
H1971  H     0.43862   0.89759   0.38689   0.00000  Uiso   1.00
H1972  H     0.18908   0.83583   0.32681   0.00000  Uiso   1.00
Cr1973 Cr    0.32036   0.49018   0.65383   0.00000  Uiso   1.00
Cr1974 Cr    0.26121   0.09320   0.32188   0.00000  Uiso   1.00
O1975  O     0.25551   0.09669   0.29157   0.00000  Uiso   1.00
O1976  O     0.18307   0.13922   0.21552   0.00000  Uiso   1.00
O1977  O     0.23226   0.32531   0.12637   0.00000  Uiso   1.00
O1978  O     0.25909   0.30565   0.15044   0.00000  Uiso   1.00
O1979  O     0.36816   0.47782   0.67096   0.00000  Uiso   1.00
O1980  O     0.35536   0.46912   0.65081   0.00000  Uiso   1.00
O1981  O     0.48645   0.33838   0.71602   0.00000  Uiso   1.00
O1982  O     0.48521   0.29931   0.74576   0.00000  Uiso   1.00
O1983  O     0.42135   0.37615   0.82762   0.00000  Uiso   1.00
O1984  O     0.41770   0.33646   0.84968   0.00000  Uiso   1.00
O1985  O     0.32532   0.28743   0.83078   0.00000  Uiso   1.00
O1986  O     0.36839   0.33482   0.87274   0.00000  Uiso   1.00
O1987  O     0.33722   0.29232   0.75519   0.00000  Uiso   1.00
O1988  O     0.34929   0.27216   0.78959   0.00000  Uiso   1.00
O1989  O     0.46250   0.30365   0.68306   0.00000  Uiso   1.00
O1990  O     0.46539   0.28166   0.72510   0.00000  Uiso   1.00
C1991  C     0.22530   0.11144   0.26456   0.00000  Uiso   1.00
C1992  C     0.20972   0.12015   0.24924   0.00000  Uiso   1.00
C1993  C     0.21433   0.31321   0.19184   0.00000  Uiso   1.00
C1994  C     0.23697   0.31103   0.14832   0.00000  Uiso   1.00
C1995  C     0.21449   0.31041   0.17079   0.00000  Uiso   1.00
C1996  C     0.18984   0.32003   0.16734   0.00000  Uiso   1.00
C1997  C     0.41661   0.43970   0.66492   0.00000  Uiso   1.00
C1998  C     0.37392   0.46564   0.65697   0.00000  Uiso   1.00
C1999  C     0.39611   0.44167   0.65870   0.00000  Uiso   1.00
C2000  C     0.39579   0.41840   0.66026   0.00000  Uiso   1.00
C2001  C     0.45633   0.35958   0.75673   0.00000  Uiso   1.00
C2002  C     0.48393   0.32265   0.73919   0.00000  Uiso   1.00
C2003  C     0.47008   0.33208   0.75983   0.00000  Uiso   1.00
C2004  C     0.44335   0.36721   0.77899   0.00000  Uiso   1.00
C2005  C     0.42591   0.35349   0.82791   0.00000  Uiso   1.00
C2006  C     0.43693   0.34769   0.80408   0.00000  Uiso   1.00
C2007  C     0.46193   0.31358   0.78314   0.00000  Uiso   1.00
C2008  C     0.44756   0.32080   0.80620   0.00000  Uiso   1.00
C2009  C     0.33901   0.30198   0.85157   0.00000  Uiso   1.00
C2010  C     0.35069   0.31329   0.85640   0.00000  Uiso   1.00
C2011  C     0.38368   0.30220   0.72491   0.00000  Uiso   1.00
C2012  C     0.35389   0.28350   0.76578   0.00000  Uiso   1.00
C2013  C     0.37886   0.28536   0.75077   0.00000  Uiso   1.00
C2014  C     0.40885   0.30272   0.70963   0.00000  Uiso   1.00
C2015  C     0.45239   0.29267   0.70924   0.00000  Uiso   1.00
C2016  C     0.42814   0.28837   0.72142   0.00000  Uiso   1.00
C2017  C     0.39703   0.27329   0.76361   0.00000  Uiso   1.00
C2018  C     0.42212   0.27471   0.74870   0.00000  Uiso   1.00
H2019  H     0.21613   0.11047   0.28451   0.00000  Uiso   1.00
H2020  H     0.18911   0.12428   0.25814   0.00000  Uiso   1.00
H2021  H     0.35062   0.28496   0.84592   0.00000  Uiso   1.00
H2022  H     0.36937   0.30238   0.85888   0.00000  Uiso   1.00
H2023  H     0.23094   0.31523   0.19046   0.00000  Uiso   1.00
H2024  H     0.39146   0.26341   0.78422   0.00000  Uiso   1.00
H2025  H     0.43649   0.26560   0.75785   0.00000  Uiso   1.00
H2026  H     0.36805   0.31447   0.71713   0.00000  Uiso   1.00
H2027  H     0.41322   0.31388   0.68930   0.00000  Uiso   1.00
H2028  H     0.41451   0.45514   0.66938   0.00000  Uiso   1.00
H2029  H     0.37848   0.41790   0.66143   0.00000  Uiso   1.00
H2030  H     0.46637   0.29459   0.78361   0.00000  Uiso   1.00
H2031  H     0.44481   0.30606   0.82501   0.00000  Uiso   1.00
H2032  H     0.45617   0.37363   0.73783   0.00000  Uiso   1.00
H2033  H     0.43862   0.38689   0.77689   0.00000  Uiso   1.00
H2034  H     0.18910   0.32681   0.14828   0.00000  Uiso   1.00
Cr2035 Cr    0.65384   0.03562   0.32036   0.00000  Uiso   1.00
Cr2036 Cr    0.32188   0.82372   0.26120   0.00000  Uiso   1.00
O2037  O     0.29157   0.85623   0.25551   0.00000  Uiso   1.00
O2038  O     0.21553   0.96218   0.18307   0.00000  Uiso   1.00
O2039  O     0.12638   0.81606   0.23226   0.00000  Uiso   1.00
O2040  O     0.15045   0.78481   0.25908   0.00000  Uiso   1.00
O2041  O     0.67095   0.98306   0.36816   0.00000  Uiso   1.00
O2042  O     0.65081   0.02471   0.35534   0.00000  Uiso   1.00
O2043  O     0.71603   0.95913   0.48645   0.00000  Uiso   1.00
O2044  O     0.74577   0.96972   0.48522   0.00000  Uiso   1.00
O2045  O     0.82763   0.87488   0.42133   0.00000  Uiso   1.00
O2046  O     0.84967   0.89615   0.41771   0.00000  Uiso   1.00
O2047  O     0.83078   0.05646   0.32533   0.00000  Uiso   1.00
O2048  O     0.87274   0.92404   0.36840   0.00000  Uiso   1.00
O2049  O     0.75521   0.11526   0.33721   0.00000  Uiso   1.00
O2050  O     0.78960   0.08895   0.34930   0.00000  Uiso   1.00
O2051  O     0.68307   0.05077   0.46250   0.00000  Uiso   1.00
O2052  O     0.72510   0.02785   0.46540   0.00000  Uiso   1.00
F2053  F     0.62144   0.06697   0.32803   0.00000  Uiso   1.00
C2054  C     0.26456   0.89870   0.22530   0.00000  Uiso   1.00
C2055  C     0.24925   0.92087   0.20971   0.00000  Uiso   1.00
C2056  C     0.19185   0.78062   0.21433   0.00000  Uiso   1.00
C2057  C     0.14831   0.80368   0.23698   0.00000  Uiso   1.00
C2058  C     0.17079   0.80431   0.21449   0.00000  Uiso   1.00
C2059  C     0.16733   0.82279   0.18985   0.00000  Uiso   1.00
C2060  C     0.65696   0.00347   0.37391   0.00000  Uiso   1.00
C2061  C     0.65870   0.00352   0.39611   0.00000  Uiso   1.00
C2062  C     0.66026   0.02554   0.39580   0.00000  Uiso   1.00
C2063  C     0.75673   0.92734   0.45634   0.00000  Uiso   1.00
C2064  C     0.73918   0.95423   0.48393   0.00000  Uiso   1.00
C2065  C     0.75982   0.93799   0.47010   0.00000  Uiso   1.00
C2066  C     0.77899   0.91045   0.44336   0.00000  Uiso   1.00
C2067  C     0.82792   0.89267   0.42589   0.00000  Uiso   1.00
C2068  C     0.80407   0.91130   0.43692   0.00000  Uiso   1.00
C2069  C     0.78314   0.94133   0.46193   0.00000  Uiso   1.00
C2070  C     0.80621   0.92543   0.44757   0.00000  Uiso   1.00
C2071  C     0.85642   0.97961   0.35068   0.00000  Uiso   1.00
C2072  C     0.72489   0.08923   0.38368   0.00000  Uiso   1.00
C2073  C     0.76578   0.09682   0.35390   0.00000  Uiso   1.00
C2074  C     0.75077   0.08499   0.37886   0.00000  Uiso   1.00
C2075  C     0.70962   0.07881   0.40886   0.00000  Uiso   1.00
C2076  C     0.70924   0.04571   0.45240   0.00000  Uiso   1.00
C2077  C     0.72143   0.06208   0.42813   0.00000  Uiso   1.00
C2078  C     0.76363   0.06606   0.39701   0.00000  Uiso   1.00
C2079  C     0.74871   0.05445   0.42213   0.00000  Uiso   1.00
H2080  H     0.28453   0.88887   0.21612   0.00000  Uiso   1.00
H2081  H     0.25814   0.92847   0.18911   0.00000  Uiso   1.00
H2082  H     0.85888   0.96936   0.36937   0.00000  Uiso   1.00
H2083  H     0.19046   0.76338   0.23094   0.00000  Uiso   1.00
H2084  H     0.78420   0.06091   0.39147   0.00000  Uiso   1.00
H2085  H     0.75784   0.04005   0.43650   0.00000  Uiso   1.00
H2086  H     0.71712   0.10036   0.36805   0.00000  Uiso   1.00
H2087  H     0.68930   0.08359   0.41321   0.00000  Uiso   1.00
H2088  H     0.66143   0.04220   0.37847   0.00000  Uiso   1.00
H2089  H     0.78361   0.95542   0.46637   0.00000  Uiso   1.00
H2090  H     0.82500   0.92412   0.44482   0.00000  Uiso   1.00
H2091  H     0.73784   0.93236   0.45616   0.00000  Uiso   1.00
H2092  H     0.77689   0.89760   0.43862   0.00000  Uiso   1.00
H2093  H     0.14827   0.83581   0.18909   0.00000  Uiso   1.00
Cr2094 Cr    0.03563   0.65382   0.49019   0.00000  Uiso   1.00
Cr2095 Cr    0.82371   0.32189   0.09320   0.00000  Uiso   1.00
O2096  O     0.19888   0.01851   0.16184   0.00000  Uiso   1.00
O2097  O     0.85624   0.29156   0.09669   0.00000  Uiso   1.00
O2098  O     0.96219   0.21553   0.13922   0.00000  Uiso   1.00
O2099  O     0.81606   0.12638   0.32531   0.00000  Uiso   1.00
O2100  O     0.78481   0.15044   0.30566   0.00000  Uiso   1.00
O2101  O     0.98306   0.67096   0.47781   0.00000  Uiso   1.00
O2102  O     0.02471   0.65081   0.46912   0.00000  Uiso   1.00
O2103  O     0.95913   0.71602   0.33838   0.00000  Uiso   1.00
O2104  O     0.96972   0.74575   0.29931   0.00000  Uiso   1.00
O2105  O     0.87488   0.82763   0.37616   0.00000  Uiso   1.00
O2106  O     0.89616   0.84968   0.33645   0.00000  Uiso   1.00
O2107  O     0.05646   0.83078   0.28744   0.00000  Uiso   1.00
O2108  O     0.92405   0.87273   0.33484   0.00000  Uiso   1.00
O2109  O     0.11525   0.75521   0.29233   0.00000  Uiso   1.00
O2110  O     0.08893   0.78960   0.27216   0.00000  Uiso   1.00
O2111  O     0.05079   0.68306   0.30365   0.00000  Uiso   1.00
O2112  O     0.02784   0.72510   0.28167   0.00000  Uiso   1.00
F2113  F     0.84374   0.34456   0.07800   0.00000  Uiso   1.00
C2114  C     0.20086   0.05812   0.16046   0.00000  Uiso   1.00
C2115  C     0.89870   0.26455   0.11144   0.00000  Uiso   1.00
C2116  C     0.92088   0.24925   0.12016   0.00000  Uiso   1.00
C2117  C     0.78061   0.19184   0.31320   0.00000  Uiso   1.00
C2118  C     0.80369   0.14830   0.31104   0.00000  Uiso   1.00
C2119  C     0.80431   0.17078   0.31042   0.00000  Uiso   1.00
C2120  C     0.82279   0.16734   0.32002   0.00000  Uiso   1.00
C2121  C     0.00349   0.65696   0.46563   0.00000  Uiso   1.00
C2122  C     0.00351   0.65870   0.44166   0.00000  Uiso   1.00
C2123  C     0.02553   0.66026   0.41841   0.00000  Uiso   1.00
C2124  C     0.92734   0.75673   0.35959   0.00000  Uiso   1.00
C2125  C     0.95424   0.73918   0.32266   0.00000  Uiso   1.00
C2126  C     0.93798   0.75983   0.33209   0.00000  Uiso   1.00
C2127  C     0.91044   0.77899   0.36721   0.00000  Uiso   1.00
C2128  C     0.89267   0.82792   0.35351   0.00000  Uiso   1.00
C2129  C     0.91130   0.80408   0.34770   0.00000  Uiso   1.00
C2130  C     0.94133   0.78315   0.31357   0.00000  Uiso   1.00
C2131  C     0.92543   0.80621   0.32078   0.00000  Uiso   1.00
C2132  C     0.97961   0.85641   0.31330   0.00000  Uiso   1.00
C2133  C     0.08922   0.72491   0.30219   0.00000  Uiso   1.00
C2134  C     0.09681   0.76577   0.28350   0.00000  Uiso   1.00
C2135  C     0.08500   0.75079   0.28535   0.00000  Uiso   1.00
C2136  C     0.07881   0.70963   0.30272   0.00000  Uiso   1.00
C2137  C     0.04570   0.70923   0.29266   0.00000  Uiso   1.00
C2138  C     0.06208   0.72142   0.28835   0.00000  Uiso   1.00
C2139  C     0.06605   0.76362   0.27331   0.00000  Uiso   1.00
C2140  C     0.05444   0.74871   0.27471   0.00000  Uiso   1.00
H2141  H     0.88888   0.28452   0.11047   0.00000  Uiso   1.00
H2142  H     0.92848   0.25815   0.12427   0.00000  Uiso   1.00
H2143  H     0.96936   0.85889   0.30239   0.00000  Uiso   1.00
H2144  H     0.21310   0.05055   0.14469   0.00000  Uiso   1.00
H2145  H     0.76338   0.19045   0.31523   0.00000  Uiso   1.00
H2146  H     0.06091   0.78421   0.26341   0.00000  Uiso   1.00
H2147  H     0.04006   0.75785   0.26561   0.00000  Uiso   1.00
H2148  H     0.10036   0.71712   0.31447   0.00000  Uiso   1.00
H2149  H     0.08359   0.68931   0.31389   0.00000  Uiso   1.00
H2150  H     0.04220   0.66144   0.41788   0.00000  Uiso   1.00
H2151  H     0.95542   0.78361   0.29459   0.00000  Uiso   1.00
H2152  H     0.92413   0.82499   0.30607   0.00000  Uiso   1.00
H2153  H     0.93237   0.73783   0.37362   0.00000  Uiso   1.00
H2154  H     0.89759   0.77690   0.38689   0.00000  Uiso   1.00
H2155  H     0.83582   0.14828   0.32681   0.00000  Uiso   1.00
Cr2156 Cr    0.49018   0.32035   0.03563   0.00000  Uiso   1.00
Cr2157 Cr    0.09320   0.26119   0.82372   0.00000  Uiso   1.00
O2158  O     0.16185   0.12077   0.19888   0.00000  Uiso   1.00
O2159  O     0.09670   0.25550   0.85623   0.00000  Uiso   1.00
O2160  O     0.13921   0.18306   0.96220   0.00000  Uiso   1.00
O2161  O     0.32530   0.23225   0.81606   0.00000  Uiso   1.00
O2162  O     0.30564   0.25910   0.78480   0.00000  Uiso   1.00
O2163  O     0.47781   0.36817   0.98305   0.00000  Uiso   1.00
O2164  O     0.46913   0.35535   0.02471   0.00000  Uiso   1.00
O2165  O     0.33838   0.48645   0.95914   0.00000  Uiso   1.00
O2166  O     0.29930   0.48522   0.96972   0.00000  Uiso   1.00
O2167  O     0.37616   0.42133   0.87488   0.00000  Uiso   1.00
O2168  O     0.33645   0.41769   0.89617   0.00000  Uiso   1.00
O2169  O     0.28744   0.32531   0.05646   0.00000  Uiso   1.00
O2170  O     0.33482   0.36839   0.92406   0.00000  Uiso   1.00
O2171  O     0.29231   0.33722   0.11526   0.00000  Uiso   1.00
O2172  O     0.27216   0.34931   0.08893   0.00000  Uiso   1.00
O2173  O     0.30366   0.46251   0.05077   0.00000  Uiso   1.00
O2174  O     0.28166   0.46541   0.02783   0.00000  Uiso   1.00
F2175  F     0.07799   0.23371   0.84376   0.00000  Uiso   1.00
C2176  C     0.16046   0.08054   0.20086   0.00000  Uiso   1.00
C2177  C     0.11144   0.22530   0.89870   0.00000  Uiso   1.00
C2178  C     0.12016   0.20972   0.92088   0.00000  Uiso   1.00
C2179  C     0.31320   0.21434   0.78061   0.00000  Uiso   1.00
C2180  C     0.31102   0.23697   0.80369   0.00000  Uiso   1.00
C2181  C     0.31042   0.21449   0.80431   0.00000  Uiso   1.00
C2182  C     0.32003   0.18986   0.82279   0.00000  Uiso   1.00
C2183  C     0.46564   0.37391   0.00349   0.00000  Uiso   1.00
C2184  C     0.44165   0.39611   0.00353   0.00000  Uiso   1.00
C2185  C     0.41841   0.39580   0.02553   0.00000  Uiso   1.00
C2186  C     0.35960   0.45632   0.92735   0.00000  Uiso   1.00
C2187  C     0.32265   0.48393   0.95423   0.00000  Uiso   1.00
C2188  C     0.33209   0.47008   0.93799   0.00000  Uiso   1.00
C2189  C     0.36722   0.44334   0.91045   0.00000  Uiso   1.00
C2190  C     0.35351   0.42589   0.89268   0.00000  Uiso   1.00
C2191  C     0.34769   0.43693   0.91129   0.00000  Uiso   1.00
C2192  C     0.31358   0.46193   0.94134   0.00000  Uiso   1.00
C2193  C     0.32079   0.44758   0.92542   0.00000  Uiso   1.00
C2194  C     0.30198   0.33900   0.00745   0.00000  Uiso   1.00
C2195  C     0.31329   0.35069   0.97960   0.00000  Uiso   1.00
C2196  C     0.30220   0.38368   0.08922   0.00000  Uiso   1.00
C2197  C     0.28350   0.35390   0.09683   0.00000  Uiso   1.00
C2198  C     0.28535   0.37886   0.08500   0.00000  Uiso   1.00
C2199  C     0.30270   0.40885   0.07882   0.00000  Uiso   1.00
C2200  C     0.29266   0.45240   0.04570   0.00000  Uiso   1.00
C2201  C     0.28836   0.42814   0.06208   0.00000  Uiso   1.00
C2202  C     0.27331   0.39701   0.06605   0.00000  Uiso   1.00
C2203  C     0.27471   0.42212   0.05445   0.00000  Uiso   1.00
H2204  H     0.11046   0.21614   0.88888   0.00000  Uiso   1.00
H2205  H     0.12426   0.18910   0.92848   0.00000  Uiso   1.00
H2206  H     0.28495   0.35060   0.01852   0.00000  Uiso   1.00
H2207  H     0.30237   0.36937   0.96937   0.00000  Uiso   1.00
H2208  H     0.14470   0.09164   0.21310   0.00000  Uiso   1.00
H2209  H     0.31523   0.23095   0.76336   0.00000  Uiso   1.00
H2210  H     0.26342   0.39147   0.06091   0.00000  Uiso   1.00
H2211  H     0.26561   0.43649   0.04005   0.00000  Uiso   1.00
H2212  H     0.31446   0.36805   0.10035   0.00000  Uiso   1.00
H2213  H     0.31388   0.41322   0.08359   0.00000  Uiso   1.00
H2214  H     0.41790   0.37847   0.04220   0.00000  Uiso   1.00
H2215  H     0.29459   0.46637   0.95543   0.00000  Uiso   1.00
H2216  H     0.30607   0.44481   0.92411   0.00000  Uiso   1.00
H2217  H     0.37363   0.45617   0.93238   0.00000  Uiso   1.00
H2218  H     0.38689   0.43863   0.89759   0.00000  Uiso   1.00
H2219  H     0.32681   0.18910   0.83582   0.00000  Uiso   1.00
Cr2220 Cr    0.34617   0.67965   0.96436   0.00000  Uiso   1.00
Cr2221 Cr    0.67812   0.73880   0.17629   0.00000  Uiso   1.00
O2222  O     0.70843   0.74449   0.14378   0.00000  Uiso   1.00
O2223  O     0.78447   0.81693   0.03781   0.00000  Uiso   1.00
O2224  O     0.87362   0.76774   0.18395   0.00000  Uiso   1.00
O2225  O     0.84954   0.74092   0.21519   0.00000  Uiso   1.00
O2226  O     0.32903   0.63185   0.01694   0.00000  Uiso   1.00
O2227  O     0.34919   0.64466   0.97529   0.00000  Uiso   1.00
O2228  O     0.28398   0.51354   0.04087   0.00000  Uiso   1.00
O2229  O     0.25423   0.51478   0.03029   0.00000  Uiso   1.00
O2230  O     0.17238   0.57866   0.12513   0.00000  Uiso   1.00
O2231  O     0.15033   0.58230   0.10384   0.00000  Uiso   1.00
O2232  O     0.16921   0.67468   0.94355   0.00000  Uiso   1.00
O2233  O     0.12726   0.63162   0.07595   0.00000  Uiso   1.00
O2234  O     0.24479   0.66278   0.88474   0.00000  Uiso   1.00
O2235  O     0.21040   0.65071   0.91106   0.00000  Uiso   1.00
O2236  O     0.31694   0.53749   0.94922   0.00000  Uiso   1.00
O2237  O     0.27490   0.53461   0.97216   0.00000  Uiso   1.00
F2238  F     0.65545   0.76629   0.15625   0.00000  Uiso   1.00
C2239  C     0.73544   0.77469   0.10131   0.00000  Uiso   1.00
C2240  C     0.75076   0.79028   0.07911   0.00000  Uiso   1.00
C2241  C     0.80816   0.78566   0.21938   0.00000  Uiso   1.00
C2242  C     0.85168   0.76303   0.19630   0.00000  Uiso   1.00
C2243  C     0.82921   0.78551   0.19570   0.00000  Uiso   1.00
C2244  C     0.83267   0.81016   0.17720   0.00000  Uiso   1.00
C2245  C     0.34305   0.62608   0.99652   0.00000  Uiso   1.00
C2246  C     0.34129   0.60388   0.99648   0.00000  Uiso   1.00
C2247  C     0.33975   0.60420   0.97446   0.00000  Uiso   1.00
C2248  C     0.24327   0.54367   0.07266   0.00000  Uiso   1.00
C2249  C     0.26081   0.51607   0.04576   0.00000  Uiso   1.00
C2250  C     0.24016   0.52991   0.06202   0.00000  Uiso   1.00
C2251  C     0.22101   0.55665   0.08956   0.00000  Uiso   1.00
C2252  C     0.17209   0.57410   0.10731   0.00000  Uiso   1.00
C2253  C     0.19593   0.56307   0.08870   0.00000  Uiso   1.00
C2254  C     0.21685   0.53806   0.05866   0.00000  Uiso   1.00
C2255  C     0.19379   0.55242   0.07457   0.00000  Uiso   1.00
C2256  C     0.14359   0.64931   0.02039   0.00000  Uiso   1.00
C2257  C     0.27510   0.61633   0.91078   0.00000  Uiso   1.00
C2258  C     0.23423   0.64609   0.90318   0.00000  Uiso   1.00
C2259  C     0.24922   0.62113   0.91499   0.00000  Uiso   1.00
C2260  C     0.29036   0.59116   0.92119   0.00000  Uiso   1.00
C2261  C     0.29076   0.54759   0.95430   0.00000  Uiso   1.00
C2262  C     0.27858   0.57186   0.93791   0.00000  Uiso   1.00
C2263  C     0.23638   0.60299   0.93394   0.00000  Uiso   1.00
C2264  C     0.25129   0.57787   0.94555   0.00000  Uiso   1.00
H2265  H     0.71547   0.78387   0.11113   0.00000  Uiso   1.00
H2266  H     0.74184   0.81089   0.07153   0.00000  Uiso   1.00
H2267  H     0.14112   0.63062   0.03064   0.00000  Uiso   1.00
H2268  H     0.80953   0.76907   0.23663   0.00000  Uiso   1.00
H2269  H     0.21579   0.60853   0.93908   0.00000  Uiso   1.00
H2270  H     0.24214   0.56350   0.95996   0.00000  Uiso   1.00
H2271  H     0.28289   0.63195   0.89963   0.00000  Uiso   1.00
H2272  H     0.31069   0.58678   0.91642   0.00000  Uiso   1.00
H2273  H     0.33856   0.62152   0.95781   0.00000  Uiso   1.00
H2274  H     0.21639   0.53363   0.04457   0.00000  Uiso   1.00
H2275  H     0.17500   0.55518   0.07587   0.00000  Uiso   1.00
H2276  H     0.26218   0.54382   0.06763   0.00000  Uiso   1.00
H2277  H     0.22311   0.56137   0.10240   0.00000  Uiso   1.00
H2278  H     0.85171   0.81091   0.16418   0.00000  Uiso   1.00
Cr2279 Cr    0.67965   0.34617   0.50982   0.00000  Uiso   1.00
Cr2280 Cr    0.73879   0.67812   0.90681   0.00000  Uiso   1.00
O2281  O     0.74448   0.70844   0.90330   0.00000  Uiso   1.00
O2282  O     0.81693   0.78448   0.86079   0.00000  Uiso   1.00
O2283  O     0.76774   0.87363   0.67470   0.00000  Uiso   1.00
O2284  O     0.74091   0.84955   0.69435   0.00000  Uiso   1.00
O2285  O     0.63184   0.32904   0.52217   0.00000  Uiso   1.00
O2286  O     0.64465   0.34918   0.53087   0.00000  Uiso   1.00
O2287  O     0.51356   0.28398   0.66160   0.00000  Uiso   1.00
O2288  O     0.51478   0.25424   0.70070   0.00000  Uiso   1.00
O2289  O     0.57866   0.17239   0.62383   0.00000  Uiso   1.00
O2290  O     0.58230   0.15032   0.66353   0.00000  Uiso   1.00
O2291  O     0.67468   0.16922   0.71255   0.00000  Uiso   1.00
O2292  O     0.63162   0.12726   0.66517   0.00000  Uiso   1.00
O2293  O     0.66278   0.24480   0.70768   0.00000  Uiso   1.00
O2294  O     0.65070   0.21040   0.72783   0.00000  Uiso   1.00
O2295  O     0.53751   0.31694   0.69634   0.00000  Uiso   1.00
O2296  O     0.53461   0.27490   0.71834   0.00000  Uiso   1.00
F2297  F     0.67196   0.37856   0.51644   0.00000  Uiso   1.00
C2298  C     0.77470   0.73544   0.88856   0.00000  Uiso   1.00
C2299  C     0.79027   0.75077   0.87983   0.00000  Uiso   1.00
C2300  C     0.78565   0.80816   0.68680   0.00000  Uiso   1.00
C2301  C     0.76303   0.85169   0.68897   0.00000  Uiso   1.00
C2302  C     0.78551   0.82921   0.68959   0.00000  Uiso   1.00
C2303  C     0.81015   0.83268   0.67996   0.00000  Uiso   1.00
C2304  C     0.58338   0.33507   0.56030   0.00000  Uiso   1.00
C2305  C     0.62609   0.34304   0.53435   0.00000  Uiso   1.00
C2306  C     0.60387   0.34129   0.55835   0.00000  Uiso   1.00
C2307  C     0.60420   0.33973   0.58160   0.00000  Uiso   1.00
C2308  C     0.54366   0.24326   0.64042   0.00000  Uiso   1.00
C2309  C     0.51607   0.26081   0.67735   0.00000  Uiso   1.00
C2310  C     0.52990   0.24016   0.66792   0.00000  Uiso   1.00
C2311  C     0.55665   0.22102   0.63278   0.00000  Uiso   1.00
C2312  C     0.57410   0.17207   0.64650   0.00000  Uiso   1.00
C2313  C     0.56308   0.19591   0.65231   0.00000  Uiso   1.00
C2314  C     0.53806   0.21687   0.68642   0.00000  Uiso   1.00
C2315  C     0.55243   0.19379   0.67920   0.00000  Uiso   1.00
C2316  C     0.66099   0.14843   0.69801   0.00000  Uiso   1.00
C2317  C     0.64931   0.14358   0.68671   0.00000  Uiso   1.00
C2318  C     0.61632   0.27511   0.69780   0.00000  Uiso   1.00
C2319  C     0.64609   0.23422   0.71651   0.00000  Uiso   1.00
C2320  C     0.62114   0.24923   0.71464   0.00000  Uiso   1.00
C2321  C     0.59115   0.29036   0.69729   0.00000  Uiso   1.00
C2322  C     0.54759   0.29076   0.70735   0.00000  Uiso   1.00
C2323  C     0.57186   0.27858   0.71163   0.00000  Uiso   1.00
C2324  C     0.60297   0.23639   0.72670   0.00000  Uiso   1.00
C2325  C     0.57786   0.25128   0.72530   0.00000  Uiso   1.00
H2326  H     0.78386   0.71547   0.88954   0.00000  Uiso   1.00
H2327  H     0.81090   0.74185   0.87572   0.00000  Uiso   1.00
H2328  H     0.64938   0.15407   0.71505   0.00000  Uiso   1.00
H2329  H     0.63064   0.14110   0.69762   0.00000  Uiso   1.00
H2330  H     0.76906   0.80954   0.68478   0.00000  Uiso   1.00
H2331  H     0.60854   0.21578   0.73658   0.00000  Uiso   1.00
H2332  H     0.56350   0.24215   0.73440   0.00000  Uiso   1.00
H2333  H     0.63195   0.28287   0.68554   0.00000  Uiso   1.00
H2334  H     0.58678   0.31070   0.68610   0.00000  Uiso   1.00
H2335  H     0.58550   0.33061   0.54486   0.00000  Uiso   1.00
H2336  H     0.62153   0.33855   0.58210   0.00000  Uiso   1.00
H2337  H     0.53362   0.21640   0.70542   0.00000  Uiso   1.00
H2338  H     0.55519   0.17500   0.69394   0.00000  Uiso   1.00
H2339  H     0.54383   0.26217   0.62637   0.00000  Uiso   1.00
H2340  H     0.56138   0.22311   0.61311   0.00000  Uiso   1.00
H2341  H     0.81090   0.85173   0.67318   0.00000  Uiso   1.00
Cr2342 Cr    0.50980   0.96437   0.67965   0.00000  Uiso   1.00
Cr2343 Cr    0.90680   0.17627   0.73880   0.00000  Uiso   1.00
O2344  O     0.83814   0.80113   0.87923   0.00000  Uiso   1.00
O2345  O     0.90331   0.14376   0.74449   0.00000  Uiso   1.00
O2346  O     0.86079   0.03781   0.81694   0.00000  Uiso   1.00
O2347  O     0.67470   0.18393   0.76775   0.00000  Uiso   1.00
O2348  O     0.69434   0.21519   0.74091   0.00000  Uiso   1.00
O2349  O     0.52217   0.01694   0.63184   0.00000  Uiso   1.00
O2350  O     0.53087   0.97528   0.64465   0.00000  Uiso   1.00
O2351  O     0.66160   0.04086   0.51356   0.00000  Uiso   1.00
O2352  O     0.70070   0.03027   0.51479   0.00000  Uiso   1.00
O2353  O     0.62385   0.12512   0.57866   0.00000  Uiso   1.00
O2354  O     0.66354   0.10384   0.58230   0.00000  Uiso   1.00
O2355  O     0.71255   0.94353   0.67468   0.00000  Uiso   1.00
O2356  O     0.66517   0.07595   0.63161   0.00000  Uiso   1.00
O2357  O     0.70769   0.88473   0.66277   0.00000  Uiso   1.00
O2358  O     0.72784   0.91107   0.65069   0.00000  Uiso   1.00
O2359  O     0.69635   0.94922   0.53749   0.00000  Uiso   1.00
O2360  O     0.71834   0.97216   0.53461   0.00000  Uiso   1.00
C2361  C     0.83954   0.79913   0.91946   0.00000  Uiso   1.00
C2362  C     0.88856   0.10130   0.77470   0.00000  Uiso   1.00
C2363  C     0.87983   0.07913   0.79028   0.00000  Uiso   1.00
C2364  C     0.68680   0.21938   0.78566   0.00000  Uiso   1.00
C2365  C     0.68897   0.19631   0.76303   0.00000  Uiso   1.00
C2366  C     0.68959   0.19569   0.78550   0.00000  Uiso   1.00
C2367  C     0.67997   0.17720   0.81016   0.00000  Uiso   1.00
C2368  C     0.53436   0.99652   0.62607   0.00000  Uiso   1.00
C2369  C     0.55834   0.99648   0.60388   0.00000  Uiso   1.00
C2370  C     0.58160   0.97445   0.60421   0.00000  Uiso   1.00
C2371  C     0.64041   0.07265   0.54367   0.00000  Uiso   1.00
C2372  C     0.67735   0.04578   0.51607   0.00000  Uiso   1.00
C2373  C     0.66792   0.06200   0.52991   0.00000  Uiso   1.00
C2374  C     0.63279   0.08955   0.55665   0.00000  Uiso   1.00
C2375  C     0.64650   0.10733   0.57409   0.00000  Uiso   1.00
C2376  C     0.65229   0.08871   0.56308   0.00000  Uiso   1.00
C2377  C     0.68641   0.05866   0.53806   0.00000  Uiso   1.00
C2378  C     0.67922   0.07456   0.55242   0.00000  Uiso   1.00
C2379  C     0.69801   0.99256   0.66100   0.00000  Uiso   1.00
C2380  C     0.68672   0.02038   0.64931   0.00000  Uiso   1.00
C2381  C     0.69780   0.91079   0.61631   0.00000  Uiso   1.00
C2382  C     0.71650   0.90318   0.64609   0.00000  Uiso   1.00
C2383  C     0.71463   0.91500   0.62114   0.00000  Uiso   1.00
C2384  C     0.69728   0.92120   0.59115   0.00000  Uiso   1.00
C2385  C     0.70734   0.95430   0.54761   0.00000  Uiso   1.00
C2386  C     0.71165   0.93792   0.57185   0.00000  Uiso   1.00
C2387  C     0.72671   0.93394   0.60298   0.00000  Uiso   1.00
C2388  C     0.72529   0.94554   0.57788   0.00000  Uiso   1.00
H2389  H     0.88954   0.11112   0.78386   0.00000  Uiso   1.00
H2390  H     0.87573   0.07152   0.81090   0.00000  Uiso   1.00
H2391  H     0.71505   0.98150   0.64938   0.00000  Uiso   1.00
H2392  H     0.69761   0.03063   0.63063   0.00000  Uiso   1.00
H2393  H     0.85531   0.78689   0.90835   0.00000  Uiso   1.00
H2394  H     0.68477   0.23663   0.76907   0.00000  Uiso   1.00
H2395  H     0.73658   0.93908   0.60853   0.00000  Uiso   1.00
H2396  H     0.73440   0.95994   0.56349   0.00000  Uiso   1.00
H2397  H     0.68553   0.89964   0.63194   0.00000  Uiso   1.00
H2398  H     0.68611   0.91640   0.58678   0.00000  Uiso   1.00
H2399  H     0.58211   0.95780   0.62153   0.00000  Uiso   1.00
H2400  H     0.70541   0.04457   0.53363   0.00000  Uiso   1.00
H2401  H     0.69393   0.07588   0.55519   0.00000  Uiso   1.00
H2402  H     0.62637   0.06764   0.54383   0.00000  Uiso   1.00
H2403  H     0.61311   0.10239   0.56139   0.00000  Uiso   1.00
H2404  H     0.67318   0.16418   0.81090   0.00000  Uiso   1.00
Cr2405 Cr    0.96437   0.50981   0.34616   0.00000  Uiso   1.00
Cr2406 Cr    0.17628   0.90680   0.67811   0.00000  Uiso   1.00
O2407  O     0.80113   0.83814   0.98149   0.00000  Uiso   1.00
O2408  O     0.14376   0.90330   0.70844   0.00000  Uiso   1.00
O2409  O     0.03782   0.86078   0.78447   0.00000  Uiso   1.00
O2410  O     0.18394   0.67471   0.87362   0.00000  Uiso   1.00
O2411  O     0.21520   0.69435   0.84955   0.00000  Uiso   1.00
O2412  O     0.01694   0.52217   0.32905   0.00000  Uiso   1.00
O2413  O     0.97530   0.53087   0.34918   0.00000  Uiso   1.00
O2414  O     0.04086   0.66161   0.28397   0.00000  Uiso   1.00
O2415  O     0.03028   0.70070   0.25425   0.00000  Uiso   1.00
O2416  O     0.12512   0.62384   0.17239   0.00000  Uiso   1.00
O2417  O     0.10385   0.66353   0.15033   0.00000  Uiso   1.00
O2418  O     0.94353   0.71256   0.16921   0.00000  Uiso   1.00
O2419  O     0.07595   0.66517   0.12727   0.00000  Uiso   1.00
O2420  O     0.88475   0.70767   0.24479   0.00000  Uiso   1.00
O2421  O     0.91106   0.72783   0.21039   0.00000  Uiso   1.00
O2422  O     0.94921   0.69634   0.31695   0.00000  Uiso   1.00
O2423  O     0.97215   0.71835   0.27491   0.00000  Uiso   1.00
F2424  F     0.15624   0.92202   0.65545   0.00000  Uiso   1.00
C2425  C     0.79912   0.83955   0.94187   0.00000  Uiso   1.00
C2426  C     0.10131   0.88855   0.73543   0.00000  Uiso   1.00
C2427  C     0.07912   0.87985   0.75075   0.00000  Uiso   1.00
C2428  C     0.21937   0.68681   0.80815   0.00000  Uiso   1.00
C2429  C     0.19630   0.68896   0.85169   0.00000  Uiso   1.00
C2430  C     0.19569   0.68958   0.82922   0.00000  Uiso   1.00
C2431  C     0.17721   0.67998   0.83267   0.00000  Uiso   1.00
C2432  C     0.99652   0.53435   0.34304   0.00000  Uiso   1.00
C2433  C     0.99647   0.55834   0.34131   0.00000  Uiso   1.00
C2434  C     0.97445   0.58159   0.33975   0.00000  Uiso   1.00
C2435  C     0.07264   0.64041   0.24327   0.00000  Uiso   1.00
C2436  C     0.04577   0.67734   0.26081   0.00000  Uiso   1.00
C2437  C     0.06200   0.66791   0.24017   0.00000  Uiso   1.00
C2438  C     0.08956   0.63278   0.22102   0.00000  Uiso   1.00
C2439  C     0.10732   0.64651   0.17208   0.00000  Uiso   1.00
C2440  C     0.08870   0.65230   0.19591   0.00000  Uiso   1.00
C2441  C     0.05866   0.68641   0.21686   0.00000  Uiso   1.00
C2442  C     0.07457   0.67922   0.19379   0.00000  Uiso   1.00
C2443  C     0.02039   0.68671   0.14358   0.00000  Uiso   1.00
C2444  C     0.91079   0.69779   0.27510   0.00000  Uiso   1.00
C2445  C     0.90318   0.71649   0.23421   0.00000  Uiso   1.00
C2446  C     0.91500   0.71463   0.24922   0.00000  Uiso   1.00
C2447  C     0.92119   0.69729   0.29038   0.00000  Uiso   1.00
C2448  C     0.95429   0.70735   0.29075   0.00000  Uiso   1.00
C2449  C     0.93791   0.71165   0.27857   0.00000  Uiso   1.00
C2450  C     0.93394   0.72671   0.23637   0.00000  Uiso   1.00
C2451  C     0.94555   0.72528   0.25128   0.00000  Uiso   1.00
H2452  H     0.11112   0.88953   0.71547   0.00000  Uiso   1.00
H2453  H     0.07153   0.87572   0.74184   0.00000  Uiso   1.00
H2454  H     0.03064   0.69762   0.14111   0.00000  Uiso   1.00
H2455  H     0.78688   0.85531   0.94945   0.00000  Uiso   1.00
H2456  H     0.23663   0.68477   0.80953   0.00000  Uiso   1.00
H2457  H     0.93909   0.73658   0.21579   0.00000  Uiso   1.00
H2458  H     0.95994   0.73439   0.24216   0.00000  Uiso   1.00
H2459  H     0.89964   0.68554   0.28288   0.00000  Uiso   1.00
H2460  H     0.91641   0.68611   0.31069   0.00000  Uiso   1.00
H2461  H     0.95781   0.58210   0.33856   0.00000  Uiso   1.00
H2462  H     0.04457   0.70542   0.21640   0.00000  Uiso   1.00
H2463  H     0.07588   0.69393   0.17500   0.00000  Uiso   1.00
H2464  H     0.06764   0.62636   0.26218   0.00000  Uiso   1.00
H2465  H     0.10241   0.61311   0.22310   0.00000  Uiso   1.00
H2466  H     0.16418   0.67318   0.85173   0.00000  Uiso   1.00
Cr2467 Cr    0.50982   0.34618   0.96436   0.00000  Uiso   1.00
Cr2468 Cr    0.90679   0.67812   0.17629   0.00000  Uiso   1.00
O2469  O     0.83815   0.98148   0.80113   0.00000  Uiso   1.00
O2470  O     0.90331   0.70842   0.14378   0.00000  Uiso   1.00
O2471  O     0.86079   0.78446   0.03781   0.00000  Uiso   1.00
O2472  O     0.67470   0.87362   0.18395   0.00000  Uiso   1.00
O2473  O     0.69435   0.84955   0.21519   0.00000  Uiso   1.00
O2474  O     0.52217   0.32904   0.01694   0.00000  Uiso   1.00
O2475  O     0.53087   0.34918   0.97529   0.00000  Uiso   1.00
O2476  O     0.66161   0.28396   0.04087   0.00000  Uiso   1.00
O2477  O     0.70071   0.25423   0.03029   0.00000  Uiso   1.00
O2478  O     0.62383   0.17238   0.12513   0.00000  Uiso   1.00
O2479  O     0.66355   0.15031   0.10384   0.00000  Uiso   1.00
O2480  O     0.71256   0.16921   0.94355   0.00000  Uiso   1.00
O2481  O     0.66516   0.12727   0.07595   0.00000  Uiso   1.00
O2482  O     0.70768   0.24480   0.88474   0.00000  Uiso   1.00
O2483  O     0.72785   0.21040   0.91106   0.00000  Uiso   1.00
O2484  O     0.69635   0.31693   0.94922   0.00000  Uiso   1.00
O2485  O     0.71834   0.27491   0.97216   0.00000  Uiso   1.00
F2486  F     0.51643   0.37856   0.93304   0.00000  Uiso   1.00
C2487  C     0.83954   0.94187   0.79913   0.00000  Uiso   1.00
C2488  C     0.88855   0.73544   0.10131   0.00000  Uiso   1.00
C2489  C     0.87985   0.75076   0.07911   0.00000  Uiso   1.00
C2490  C     0.68681   0.80815   0.21938   0.00000  Uiso   1.00
C2491  C     0.68897   0.85169   0.19630   0.00000  Uiso   1.00
C2492  C     0.68959   0.82920   0.19570   0.00000  Uiso   1.00
C2493  C     0.67998   0.83266   0.17720   0.00000  Uiso   1.00
C2494  C     0.53436   0.34304   0.99652   0.00000  Uiso   1.00
C2495  C     0.55834   0.34129   0.99648   0.00000  Uiso   1.00
C2496  C     0.58160   0.33974   0.97446   0.00000  Uiso   1.00
C2497  C     0.64041   0.24327   0.07266   0.00000  Uiso   1.00
C2498  C     0.67734   0.26082   0.04576   0.00000  Uiso   1.00
C2499  C     0.66791   0.24016   0.06202   0.00000  Uiso   1.00
C2500  C     0.63278   0.22101   0.08956   0.00000  Uiso   1.00
C2501  C     0.64650   0.17209   0.10731   0.00000  Uiso   1.00
C2502  C     0.65230   0.19592   0.08870   0.00000  Uiso   1.00
C2503  C     0.68641   0.21686   0.05866   0.00000  Uiso   1.00
C2504  C     0.67920   0.19379   0.07457   0.00000  Uiso   1.00
C2505  C     0.68671   0.14359   0.02039   0.00000  Uiso   1.00
C2506  C     0.69780   0.27510   0.91078   0.00000  Uiso   1.00
C2507  C     0.71651   0.23421   0.90318   0.00000  Uiso   1.00
C2508  C     0.71465   0.24922   0.91499   0.00000  Uiso   1.00
C2509  C     0.69729   0.29037   0.92119   0.00000  Uiso   1.00
C2510  C     0.70734   0.29076   0.95430   0.00000  Uiso   1.00
C2511  C     0.71164   0.27859   0.93791   0.00000  Uiso   1.00
C2512  C     0.72670   0.23638   0.93394   0.00000  Uiso   1.00
C2513  C     0.72529   0.25129   0.94555   0.00000  Uiso   1.00
H2514  H     0.88953   0.71548   0.11113   0.00000  Uiso   1.00
H2515  H     0.87573   0.74185   0.07153   0.00000  Uiso   1.00
H2516  H     0.69762   0.14111   0.03064   0.00000  Uiso   1.00
H2517  H     0.85531   0.94944   0.78689   0.00000  Uiso   1.00
H2518  H     0.68477   0.80953   0.23663   0.00000  Uiso   1.00
H2519  H     0.73658   0.21579   0.93908   0.00000  Uiso   1.00
H2520  H     0.73440   0.24215   0.95996   0.00000  Uiso   1.00
H2521  H     0.68553   0.28288   0.89963   0.00000  Uiso   1.00
H2522  H     0.68612   0.31069   0.91642   0.00000  Uiso   1.00
H2523  H     0.58210   0.33856   0.95781   0.00000  Uiso   1.00
H2524  H     0.70540   0.21640   0.04457   0.00000  Uiso   1.00
H2525  H     0.69393   0.17500   0.07587   0.00000  Uiso   1.00
H2526  H     0.62637   0.26216   0.06763   0.00000  Uiso   1.00
H2527  H     0.61311   0.22310   0.10240   0.00000  Uiso   1.00
H2528  H     0.67319   0.85172   0.16418   0.00000  Uiso   1.00
Cr2529 Cr    0.96437   0.67964   0.50982   0.00000  Uiso   1.00
Cr2530 Cr    0.17627   0.73880   0.90681   0.00000  Uiso   1.00
O2531  O     0.80113   0.87923   0.83814   0.00000  Uiso   1.00
O2532  O     0.14377   0.74449   0.90330   0.00000  Uiso   1.00
O2533  O     0.03781   0.81693   0.86079   0.00000  Uiso   1.00
O2534  O     0.18394   0.76773   0.67470   0.00000  Uiso   1.00
O2535  O     0.21518   0.74091   0.69435   0.00000  Uiso   1.00
O2536  O     0.01694   0.63184   0.52217   0.00000  Uiso   1.00
O2537  O     0.97529   0.64466   0.53087   0.00000  Uiso   1.00
O2538  O     0.04087   0.51356   0.66160   0.00000  Uiso   1.00
O2539  O     0.03028   0.51478   0.70070   0.00000  Uiso   1.00
O2540  O     0.12512   0.57866   0.62383   0.00000  Uiso   1.00
O2541  O     0.10384   0.58230   0.66353   0.00000  Uiso   1.00
O2542  O     0.94354   0.67469   0.71255   0.00000  Uiso   1.00
O2543  O     0.07594   0.63161   0.66517   0.00000  Uiso   1.00
O2544  O     0.88474   0.66279   0.70768   0.00000  Uiso   1.00
O2545  O     0.91105   0.65070   0.72783   0.00000  Uiso   1.00
O2546  O     0.94922   0.53750   0.69634   0.00000  Uiso   1.00
O2547  O     0.97217   0.53459   0.71834   0.00000  Uiso   1.00
F2548  F     0.93304   0.67196   0.51644   0.00000  Uiso   1.00
C2549  C     0.79913   0.91945   0.83955   0.00000  Uiso   1.00
C2550  C     0.10129   0.77470   0.88856   0.00000  Uiso   1.00
C2551  C     0.07913   0.79027   0.87983   0.00000  Uiso   1.00
C2552  C     0.21937   0.78565   0.68680   0.00000  Uiso   1.00
C2553  C     0.19631   0.76303   0.68897   0.00000  Uiso   1.00
C2554  C     0.19570   0.78550   0.68959   0.00000  Uiso   1.00
C2555  C     0.17721   0.81015   0.67996   0.00000  Uiso   1.00
C2556  C     0.99652   0.62608   0.53435   0.00000  Uiso   1.00
C2557  C     0.99647   0.60387   0.55835   0.00000  Uiso   1.00
C2558  C     0.97446   0.60421   0.58160   0.00000  Uiso   1.00
C2559  C     0.07265   0.54366   0.64042   0.00000  Uiso   1.00
C2560  C     0.04577   0.51606   0.67735   0.00000  Uiso   1.00
C2561  C     0.06201   0.52990   0.66792   0.00000  Uiso   1.00
C2562  C     0.08955   0.55665   0.63278   0.00000  Uiso   1.00
C2563  C     0.10732   0.57410   0.64650   0.00000  Uiso   1.00
C2564  C     0.08870   0.56307   0.65231   0.00000  Uiso   1.00
C2565  C     0.05865   0.53807   0.68642   0.00000  Uiso   1.00
C2566  C     0.07457   0.55243   0.67920   0.00000  Uiso   1.00
C2567  C     0.99257   0.66099   0.69801   0.00000  Uiso   1.00
C2568  C     0.02039   0.64931   0.68671   0.00000  Uiso   1.00
C2569  C     0.91078   0.61632   0.69780   0.00000  Uiso   1.00
C2570  C     0.90318   0.64610   0.71651   0.00000  Uiso   1.00
C2571  C     0.91500   0.62114   0.71464   0.00000  Uiso   1.00
C2572  C     0.92119   0.59115   0.69729   0.00000  Uiso   1.00
C2573  C     0.95429   0.54759   0.70735   0.00000  Uiso   1.00
C2574  C     0.93792   0.57185   0.71163   0.00000  Uiso   1.00
C2575  C     0.93394   0.60297   0.72670   0.00000  Uiso   1.00
C2576  C     0.94554   0.57786   0.72530   0.00000  Uiso   1.00
H2577  H     0.11112   0.78386   0.88954   0.00000  Uiso   1.00
H2578  H     0.07152   0.81090   0.87572   0.00000  Uiso   1.00
H2579  H     0.98148   0.64940   0.71505   0.00000  Uiso   1.00
H2580  H     0.03064   0.63064   0.69762   0.00000  Uiso   1.00
H2581  H     0.78688   0.90835   0.85531   0.00000  Uiso   1.00
H2582  H     0.23662   0.76906   0.68478   0.00000  Uiso   1.00
H2583  H     0.93909   0.60854   0.73658   0.00000  Uiso   1.00
H2584  H     0.95995   0.56349   0.73440   0.00000  Uiso   1.00
H2585  H     0.89965   0.63195   0.68554   0.00000  Uiso   1.00
H2586  H     0.91640   0.58679   0.68610   0.00000  Uiso   1.00
H2587  H     0.95782   0.62151   0.58211   0.00000  Uiso   1.00
H2588  H     0.04456   0.53363   0.70542   0.00000  Uiso   1.00
H2589  H     0.07587   0.55519   0.69394   0.00000  Uiso   1.00
H2590  H     0.06763   0.54383   0.62637   0.00000  Uiso   1.00
H2591  H     0.10241   0.56138   0.61311   0.00000  Uiso   1.00
H2592  H     0.16418   0.81091   0.67318   0.00000  Uiso   1.00
Cr2593 Cr    0.34617   0.50980   0.67965   0.00000  Uiso   1.00
Cr2594 Cr    0.67812   0.90680   0.73880   0.00000  Uiso   1.00
O2595  O     0.70842   0.90330   0.74449   0.00000  Uiso   1.00
O2596  O     0.78447   0.86078   0.81694   0.00000  Uiso   1.00
O2597  O     0.87361   0.67470   0.76775   0.00000  Uiso   1.00
O2598  O     0.84954   0.69436   0.74091   0.00000  Uiso   1.00
O2599  O     0.32904   0.52217   0.63184   0.00000  Uiso   1.00
O2600  O     0.34919   0.53088   0.64465   0.00000  Uiso   1.00
O2601  O     0.28397   0.66160   0.51356   0.00000  Uiso   1.00
O2602  O     0.25424   0.70070   0.51479   0.00000  Uiso   1.00
O2603  O     0.17238   0.62384   0.57866   0.00000  Uiso   1.00
O2604  O     0.15031   0.66355   0.58230   0.00000  Uiso   1.00
O2605  O     0.16922   0.71256   0.67468   0.00000  Uiso   1.00
O2606  O     0.12726   0.66517   0.63161   0.00000  Uiso   1.00
O2607  O     0.24480   0.70769   0.66277   0.00000  Uiso   1.00
O2608  O     0.21040   0.72785   0.65069   0.00000  Uiso   1.00
O2609  O     0.31695   0.69634   0.53749   0.00000  Uiso   1.00
O2610  O     0.27490   0.71833   0.53461   0.00000  Uiso   1.00
F2611  F     0.37856   0.51645   0.67195   0.00000  Uiso   1.00
C2612  C     0.73544   0.88856   0.77470   0.00000  Uiso   1.00
C2613  C     0.75076   0.87985   0.79028   0.00000  Uiso   1.00
C2614  C     0.80816   0.68679   0.78566   0.00000  Uiso   1.00
C2615  C     0.85169   0.68897   0.76303   0.00000  Uiso   1.00
C2616  C     0.82922   0.68958   0.78550   0.00000  Uiso   1.00
C2617  C     0.83266   0.67997   0.81016   0.00000  Uiso   1.00
C2618  C     0.33508   0.56031   0.58337   0.00000  Uiso   1.00
C2619  C     0.34304   0.53437   0.62607   0.00000  Uiso   1.00
C2620  C     0.34130   0.55834   0.60388   0.00000  Uiso   1.00
C2621  C     0.33973   0.58160   0.60421   0.00000  Uiso   1.00
C2622  C     0.24327   0.64041   0.54367   0.00000  Uiso   1.00
C2623  C     0.26080   0.67735   0.51607   0.00000  Uiso   1.00
C2624  C     0.24017   0.66791   0.52991   0.00000  Uiso   1.00
C2625  C     0.22100   0.63279   0.55665   0.00000  Uiso   1.00
C2626  C     0.17209   0.64649   0.57409   0.00000  Uiso   1.00
C2627  C     0.19592   0.65229   0.56308   0.00000  Uiso   1.00
C2628  C     0.21685   0.68642   0.53806   0.00000  Uiso   1.00
C2629  C     0.19379   0.67922   0.55242   0.00000  Uiso   1.00
C2630  C     0.14842   0.69803   0.66100   0.00000  Uiso   1.00
C2631  C     0.14359   0.68671   0.64931   0.00000  Uiso   1.00
C2632  C     0.27511   0.69780   0.61631   0.00000  Uiso   1.00
C2633  C     0.23422   0.71650   0.64609   0.00000  Uiso   1.00
C2634  C     0.24922   0.71464   0.62114   0.00000  Uiso   1.00
C2635  C     0.29038   0.69729   0.59115   0.00000  Uiso   1.00
C2636  C     0.29075   0.70734   0.54761   0.00000  Uiso   1.00
C2637  C     0.27857   0.71164   0.57185   0.00000  Uiso   1.00
C2638  C     0.23639   0.72670   0.60298   0.00000  Uiso   1.00
C2639  C     0.25128   0.72529   0.57788   0.00000  Uiso   1.00
H2640  H     0.71548   0.88953   0.78386   0.00000  Uiso   1.00
H2641  H     0.74184   0.87573   0.81090   0.00000  Uiso   1.00
H2642  H     0.15406   0.71505   0.64938   0.00000  Uiso   1.00
H2643  H     0.14111   0.69762   0.63063   0.00000  Uiso   1.00
H2644  H     0.80954   0.68477   0.76907   0.00000  Uiso   1.00
H2645  H     0.21579   0.73659   0.60853   0.00000  Uiso   1.00
H2646  H     0.24216   0.73440   0.56349   0.00000  Uiso   1.00
H2647  H     0.28288   0.68553   0.63194   0.00000  Uiso   1.00
H2648  H     0.31069   0.68611   0.58678   0.00000  Uiso   1.00
H2649  H     0.33060   0.54486   0.58550   0.00000  Uiso   1.00
H2650  H     0.33855   0.58211   0.62153   0.00000  Uiso   1.00
H2651  H     0.21638   0.70540   0.53363   0.00000  Uiso   1.00
H2652  H     0.17499   0.69394   0.55519   0.00000  Uiso   1.00
H2653  H     0.26216   0.62637   0.54383   0.00000  Uiso   1.00
H2654  H     0.22309   0.61311   0.56139   0.00000  Uiso   1.00
H2655  H     0.85172   0.67320   0.81090   0.00000  Uiso   1.00
Cr2656 Cr    0.67964   0.96438   0.34616   0.00000  Uiso   1.00
Cr2657 Cr    0.73879   0.17629   0.67811   0.00000  Uiso   1.00
O2658  O     0.74449   0.14376   0.70844   0.00000  Uiso   1.00
O2659  O     0.81693   0.03781   0.78447   0.00000  Uiso   1.00
O2660  O     0.76774   0.18394   0.87362   0.00000  Uiso   1.00
O2661  O     0.74091   0.21519   0.84955   0.00000  Uiso   1.00
O2662  O     0.63183   0.01694   0.32905   0.00000  Uiso   1.00
O2663  O     0.64465   0.97530   0.34918   0.00000  Uiso   1.00
O2664  O     0.51356   0.04086   0.28397   0.00000  Uiso   1.00
O2665  O     0.51477   0.03028   0.25425   0.00000  Uiso   1.00
O2666  O     0.57865   0.12511   0.17239   0.00000  Uiso   1.00
O2667  O     0.58229   0.10384   0.15033   0.00000  Uiso   1.00
O2668  O     0.67469   0.94354   0.16921   0.00000  Uiso   1.00
O2669  O     0.63160   0.07595   0.12727   0.00000  Uiso   1.00
O2670  O     0.66278   0.88474   0.24479   0.00000  Uiso   1.00
O2671  O     0.65070   0.91105   0.21039   0.00000  Uiso   1.00
O2672  O     0.53749   0.94922   0.31695   0.00000  Uiso   1.00
O2673  O     0.53460   0.97216   0.27491   0.00000  Uiso   1.00
C2674  C     0.77469   0.10130   0.73543   0.00000  Uiso   1.00
C2675  C     0.79028   0.07913   0.75075   0.00000  Uiso   1.00
C2676  C     0.78566   0.21938   0.80815   0.00000  Uiso   1.00
C2677  C     0.76303   0.19630   0.85169   0.00000  Uiso   1.00
C2678  C     0.78551   0.19569   0.82922   0.00000  Uiso   1.00
C2679  C     0.81015   0.17721   0.83267   0.00000  Uiso   1.00
C2680  C     0.62609   0.99651   0.34304   0.00000  Uiso   1.00
C2681  C     0.60388   0.99648   0.34131   0.00000  Uiso   1.00
C2682  C     0.60420   0.97445   0.33975   0.00000  Uiso   1.00
C2683  C     0.54366   0.07265   0.24327   0.00000  Uiso   1.00
C2684  C     0.51606   0.04577   0.26081   0.00000  Uiso   1.00
C2685  C     0.52991   0.06200   0.24017   0.00000  Uiso   1.00
C2686  C     0.55665   0.08956   0.22102   0.00000  Uiso   1.00
C2687  C     0.57410   0.10732   0.17208   0.00000  Uiso   1.00
C2688  C     0.56309   0.08870   0.19591   0.00000  Uiso   1.00
C2689  C     0.53805   0.05865   0.21686   0.00000  Uiso   1.00
C2690  C     0.55243   0.07458   0.19379   0.00000  Uiso   1.00
C2691  C     0.64932   0.02039   0.14358   0.00000  Uiso   1.00
C2692  C     0.61632   0.91078   0.27510   0.00000  Uiso   1.00
C2693  C     0.64610   0.90319   0.23421   0.00000  Uiso   1.00
C2694  C     0.62114   0.91500   0.24922   0.00000  Uiso   1.00
C2695  C     0.59115   0.92118   0.29038   0.00000  Uiso   1.00
C2696  C     0.54761   0.95429   0.29075   0.00000  Uiso   1.00
C2697  C     0.57186   0.93792   0.27857   0.00000  Uiso   1.00
C2698  C     0.60299   0.93394   0.23637   0.00000  Uiso   1.00
C2699  C     0.57787   0.94555   0.25128   0.00000  Uiso   1.00
H2700  H     0.78387   0.11112   0.71547   0.00000  Uiso   1.00
H2701  H     0.81090   0.07153   0.74184   0.00000  Uiso   1.00
H2702  H     0.63063   0.03064   0.14111   0.00000  Uiso   1.00
H2703  H     0.76906   0.23663   0.80953   0.00000  Uiso   1.00
H2704  H     0.60854   0.93909   0.21579   0.00000  Uiso   1.00
H2705  H     0.56349   0.95994   0.24216   0.00000  Uiso   1.00
H2706  H     0.63194   0.89964   0.28288   0.00000  Uiso   1.00
H2707  H     0.58679   0.91641   0.31069   0.00000  Uiso   1.00
H2708  H     0.62152   0.95780   0.33856   0.00000  Uiso   1.00
H2709  H     0.53362   0.04457   0.21640   0.00000  Uiso   1.00
H2710  H     0.55519   0.07588   0.17500   0.00000  Uiso   1.00
H2711  H     0.54382   0.06762   0.26218   0.00000  Uiso   1.00
H2712  H     0.56137   0.10240   0.22310   0.00000  Uiso   1.00
H2713  H     0.81091   0.16417   0.85173   0.00000  Uiso   1.00
Cr2714 Cr    0.67966   0.50981   0.96436   0.00000  Uiso   1.00
Cr2715 Cr    0.73879   0.90680   0.17629   0.00000  Uiso   1.00
O2716  O     0.87923   0.83815   0.80113   0.00000  Uiso   1.00
O2717  O     0.74449   0.90331   0.14378   0.00000  Uiso   1.00
O2718  O     0.81693   0.86079   0.03781   0.00000  Uiso   1.00
O2719  O     0.76774   0.67469   0.18395   0.00000  Uiso   1.00
O2720  O     0.74090   0.69435   0.21519   0.00000  Uiso   1.00
O2721  O     0.63184   0.52218   0.01694   0.00000  Uiso   1.00
O2722  O     0.64464   0.53088   0.97529   0.00000  Uiso   1.00
O2723  O     0.51354   0.66161   0.04087   0.00000  Uiso   1.00
O2724  O     0.51478   0.70070   0.03029   0.00000  Uiso   1.00
O2725  O     0.57865   0.62384   0.12513   0.00000  Uiso   1.00
O2726  O     0.58230   0.66354   0.10384   0.00000  Uiso   1.00
O2727  O     0.67467   0.71255   0.94355   0.00000  Uiso   1.00
O2728  O     0.63160   0.66517   0.07595   0.00000  Uiso   1.00
O2729  O     0.66278   0.70768   0.88474   0.00000  Uiso   1.00
O2730  O     0.65070   0.72785   0.91106   0.00000  Uiso   1.00
O2731  O     0.53750   0.69635   0.94922   0.00000  Uiso   1.00
O2732  O     0.53461   0.71834   0.97216   0.00000  Uiso   1.00
F2733  F     0.76628   0.92201   0.15625   0.00000  Uiso   1.00
C2734  C     0.91944   0.83956   0.79913   0.00000  Uiso   1.00
C2735  C     0.77469   0.88856   0.10131   0.00000  Uiso   1.00
C2736  C     0.79029   0.87984   0.07911   0.00000  Uiso   1.00
C2737  C     0.78566   0.68680   0.21938   0.00000  Uiso   1.00
C2738  C     0.76303   0.68896   0.19630   0.00000  Uiso   1.00
C2739  C     0.78551   0.68959   0.19570   0.00000  Uiso   1.00
C2740  C     0.81015   0.67997   0.17720   0.00000  Uiso   1.00
C2741  C     0.62608   0.53437   0.99652   0.00000  Uiso   1.00
C2742  C     0.60388   0.55834   0.99648   0.00000  Uiso   1.00
C2743  C     0.60420   0.58160   0.97446   0.00000  Uiso   1.00
C2744  C     0.54366   0.64041   0.07266   0.00000  Uiso   1.00
C2745  C     0.51607   0.67735   0.04576   0.00000  Uiso   1.00
C2746  C     0.52990   0.66790   0.06202   0.00000  Uiso   1.00
C2747  C     0.55665   0.63280   0.08956   0.00000  Uiso   1.00
C2748  C     0.57410   0.64650   0.10731   0.00000  Uiso   1.00
C2749  C     0.56308   0.65230   0.08870   0.00000  Uiso   1.00
C2750  C     0.53806   0.68642   0.05866   0.00000  Uiso   1.00
C2751  C     0.55242   0.67921   0.07457   0.00000  Uiso   1.00
C2752  C     0.66100   0.69801   0.99256   0.00000  Uiso   1.00
C2753  C     0.64932   0.68671   0.02039   0.00000  Uiso   1.00
C2754  C     0.61632   0.69780   0.91078   0.00000  Uiso   1.00
C2755  C     0.64609   0.71651   0.90318   0.00000  Uiso   1.00
C2756  C     0.62115   0.71465   0.91499   0.00000  Uiso   1.00
C2757  C     0.59114   0.69729   0.92119   0.00000  Uiso   1.00
C2758  C     0.54761   0.70733   0.95430   0.00000  Uiso   1.00
C2759  C     0.57187   0.71164   0.93791   0.00000  Uiso   1.00
C2760  C     0.60297   0.72671   0.93394   0.00000  Uiso   1.00
C2761  C     0.57787   0.72528   0.94555   0.00000  Uiso   1.00
H2762  H     0.78387   0.88953   0.11113   0.00000  Uiso   1.00
H2763  H     0.81089   0.87572   0.07153   0.00000  Uiso   1.00
H2764  H     0.64939   0.71504   0.98149   0.00000  Uiso   1.00
H2765  H     0.63063   0.69762   0.03064   0.00000  Uiso   1.00
H2766  H     0.90836   0.85531   0.78689   0.00000  Uiso   1.00
H2767  H     0.76906   0.68476   0.23663   0.00000  Uiso   1.00
H2768  H     0.60854   0.73659   0.93908   0.00000  Uiso   1.00
H2769  H     0.56351   0.73439   0.95996   0.00000  Uiso   1.00
H2770  H     0.63196   0.68553   0.89963   0.00000  Uiso   1.00
H2771  H     0.58679   0.68611   0.91641   0.00000  Uiso   1.00
H2772  H     0.62151   0.58211   0.95781   0.00000  Uiso   1.00
H2773  H     0.53362   0.70541   0.04457   0.00000  Uiso   1.00
H2774  H     0.55518   0.69393   0.07587   0.00000  Uiso   1.00
H2775  H     0.54384   0.62636   0.06763   0.00000  Uiso   1.00
H2776  H     0.56139   0.61312   0.10240   0.00000  Uiso   1.00
H2777  H     0.81090   0.67319   0.16418   0.00000  Uiso   1.00
Cr2778 Cr    0.34617   0.96436   0.50982   0.00000  Uiso   1.00
Cr2779 Cr    0.67811   0.17628   0.90681   0.00000  Uiso   1.00
O2780  O     0.98150   0.80112   0.83814   0.00000  Uiso   1.00
O2781  O     0.70844   0.14376   0.90330   0.00000  Uiso   1.00
O2782  O     0.78446   0.03782   0.86079   0.00000  Uiso   1.00
O2783  O     0.87362   0.18395   0.67470   0.00000  Uiso   1.00
O2784  O     0.84954   0.21520   0.69435   0.00000  Uiso   1.00
O2785  O     0.32905   0.01693   0.52217   0.00000  Uiso   1.00
O2786  O     0.34920   0.97528   0.53087   0.00000  Uiso   1.00
O2787  O     0.28398   0.04087   0.66160   0.00000  Uiso   1.00
O2788  O     0.25424   0.03028   0.70070   0.00000  Uiso   1.00
O2789  O     0.17239   0.12513   0.62383   0.00000  Uiso   1.00
O2790  O     0.15032   0.10384   0.66353   0.00000  Uiso   1.00
O2791  O     0.16922   0.94353   0.71255   0.00000  Uiso   1.00
O2792  O     0.12727   0.07596   0.66517   0.00000  Uiso   1.00
O2793  O     0.24480   0.88474   0.70768   0.00000  Uiso   1.00
O2794  O     0.21041   0.91106   0.72783   0.00000  Uiso   1.00
O2795  O     0.31695   0.94921   0.69634   0.00000  Uiso   1.00
O2796  O     0.27490   0.97216   0.71834   0.00000  Uiso   1.00
C2797  C     0.94187   0.79913   0.83955   0.00000  Uiso   1.00
C2798  C     0.73543   0.10131   0.88856   0.00000  Uiso   1.00
C2799  C     0.75076   0.07912   0.87983   0.00000  Uiso   1.00
C2800  C     0.80816   0.21939   0.68680   0.00000  Uiso   1.00
C2801  C     0.85169   0.19630   0.68897   0.00000  Uiso   1.00
C2802  C     0.82921   0.19569   0.68959   0.00000  Uiso   1.00
C2803  C     0.83266   0.17722   0.67996   0.00000  Uiso   1.00
C2804  C     0.34304   0.99652   0.53435   0.00000  Uiso   1.00
C2805  C     0.34130   0.99648   0.55835   0.00000  Uiso   1.00
C2806  C     0.33975   0.97445   0.58160   0.00000  Uiso   1.00
C2807  C     0.24326   0.07265   0.64042   0.00000  Uiso   1.00
C2808  C     0.26082   0.04577   0.67735   0.00000  Uiso   1.00
C2809  C     0.24016   0.06201   0.66792   0.00000  Uiso   1.00
C2810  C     0.22101   0.08955   0.63278   0.00000  Uiso   1.00
C2811  C     0.17207   0.10732   0.64650   0.00000  Uiso   1.00
C2812  C     0.19592   0.08870   0.65231   0.00000  Uiso   1.00
C2813  C     0.21687   0.05866   0.68642   0.00000  Uiso   1.00
C2814  C     0.19380   0.07457   0.67920   0.00000  Uiso   1.00
C2815  C     0.14359   0.02039   0.68671   0.00000  Uiso   1.00
C2816  C     0.27510   0.91078   0.69780   0.00000  Uiso   1.00
C2817  C     0.23423   0.90317   0.71651   0.00000  Uiso   1.00
C2818  C     0.24922   0.91500   0.71464   0.00000  Uiso   1.00
C2819  C     0.29036   0.92119   0.69729   0.00000  Uiso   1.00
C2820  C     0.29076   0.95429   0.70735   0.00000  Uiso   1.00
C2821  C     0.27858   0.93792   0.71163   0.00000  Uiso   1.00
C2822  C     0.23638   0.93393   0.72670   0.00000  Uiso   1.00
C2823  C     0.25129   0.94555   0.72530   0.00000  Uiso   1.00
H2824  H     0.71547   0.11112   0.88954   0.00000  Uiso   1.00
H2825  H     0.74185   0.07152   0.87572   0.00000  Uiso   1.00
H2826  H     0.14111   0.03063   0.69762   0.00000  Uiso   1.00
H2827  H     0.94944   0.78689   0.85531   0.00000  Uiso   1.00
H2828  H     0.80954   0.23663   0.68478   0.00000  Uiso   1.00
H2829  H     0.21579   0.93909   0.73658   0.00000  Uiso   1.00
H2830  H     0.24214   0.95996   0.73440   0.00000  Uiso   1.00
H2831  H     0.28288   0.89964   0.68554   0.00000  Uiso   1.00
H2832  H     0.31070   0.91641   0.68610   0.00000  Uiso   1.00
H2833  H     0.33856   0.95780   0.58210   0.00000  Uiso   1.00
H2834  H     0.21638   0.04457   0.70542   0.00000  Uiso   1.00
H2835  H     0.17500   0.07588   0.69394   0.00000  Uiso   1.00
H2836  H     0.26217   0.06763   0.62637   0.00000  Uiso   1.00
H2837  H     0.22310   0.10240   0.61311   0.00000  Uiso   1.00
H2838  H     0.85172   0.16419   0.67318   0.00000  Uiso   1.00
Cr2839 Cr    0.96436   0.34617   0.67965   0.00000  Uiso   1.00
Cr2840 Cr    0.17628   0.67812   0.73880   0.00000  Uiso   1.00
O2841  O     0.14376   0.70843   0.74449   0.00000  Uiso   1.00
O2842  O     0.03781   0.78447   0.81694   0.00000  Uiso   1.00
O2843  O     0.18394   0.87361   0.76775   0.00000  Uiso   1.00
O2844  O     0.21519   0.84956   0.74091   0.00000  Uiso   1.00
O2845  O     0.01694   0.32903   0.63184   0.00000  Uiso   1.00
O2846  O     0.97528   0.34918   0.64465   0.00000  Uiso   1.00
O2847  O     0.04086   0.28397   0.51356   0.00000  Uiso   1.00
O2848  O     0.03027   0.25423   0.51479   0.00000  Uiso   1.00
O2849  O     0.12512   0.17238   0.57866   0.00000  Uiso   1.00
O2850  O     0.10383   0.15033   0.58230   0.00000  Uiso   1.00
O2851  O     0.94353   0.16922   0.67468   0.00000  Uiso   1.00
O2852  O     0.07595   0.12727   0.63161   0.00000  Uiso   1.00
O2853  O     0.88474   0.24480   0.66277   0.00000  Uiso   1.00
O2854  O     0.91107   0.21040   0.65069   0.00000  Uiso   1.00
O2855  O     0.94921   0.31695   0.53749   0.00000  Uiso   1.00
O2856  O     0.97216   0.27489   0.53461   0.00000  Uiso   1.00
F2857  F     0.15625   0.65545   0.76628   0.00000  Uiso   1.00
F2858  F     0.93304   0.37856   0.67195   0.00000  Uiso   1.00
C2859  C     0.10129   0.73544   0.77470   0.00000  Uiso   1.00
C2860  C     0.07912   0.75076   0.79028   0.00000  Uiso   1.00
C2861  C     0.21937   0.80816   0.78566   0.00000  Uiso   1.00
C2862  C     0.19631   0.85168   0.76303   0.00000  Uiso   1.00
C2863  C     0.19568   0.82922   0.78550   0.00000  Uiso   1.00
C2864  C     0.17721   0.83266   0.81016   0.00000  Uiso   1.00
C2865  C     0.99652   0.34304   0.62607   0.00000  Uiso   1.00
C2866  C     0.99648   0.34129   0.60388   0.00000  Uiso   1.00
C2867  C     0.97445   0.33973   0.60421   0.00000  Uiso   1.00
C2868  C     0.07265   0.24326   0.54367   0.00000  Uiso   1.00
C2869  C     0.04578   0.26081   0.51607   0.00000  Uiso   1.00
C2870  C     0.06202   0.24017   0.52991   0.00000  Uiso   1.00
C2871  C     0.08955   0.22100   0.55665   0.00000  Uiso   1.00
C2872  C     0.10732   0.17208   0.57409   0.00000  Uiso   1.00
C2873  C     0.08870   0.19593   0.56308   0.00000  Uiso   1.00
C2874  C     0.05867   0.21686   0.53806   0.00000  Uiso   1.00
C2875  C     0.07457   0.19378   0.55242   0.00000  Uiso   1.00
C2876  C     0.02039   0.14359   0.64931   0.00000  Uiso   1.00
C2877  C     0.91079   0.27510   0.61631   0.00000  Uiso   1.00
C2878  C     0.90318   0.23422   0.64609   0.00000  Uiso   1.00
C2879  C     0.91499   0.24923   0.62114   0.00000  Uiso   1.00
C2880  C     0.92119   0.29037   0.59115   0.00000  Uiso   1.00
C2881  C     0.95429   0.29075   0.54761   0.00000  Uiso   1.00
C2882  C     0.93793   0.27858   0.57185   0.00000  Uiso   1.00
C2883  C     0.93394   0.23637   0.60298   0.00000  Uiso   1.00
C2884  C     0.94554   0.25128   0.57788   0.00000  Uiso   1.00
H2885  H     0.11112   0.71547   0.78386   0.00000  Uiso   1.00
H2886  H     0.07153   0.74185   0.81090   0.00000  Uiso   1.00
H2887  H     0.03063   0.14111   0.63063   0.00000  Uiso   1.00
H2888  H     0.23662   0.80954   0.76907   0.00000  Uiso   1.00
H2889  H     0.93908   0.21578   0.60853   0.00000  Uiso   1.00
H2890  H     0.95996   0.24215   0.56349   0.00000  Uiso   1.00
H2891  H     0.89964   0.28288   0.63194   0.00000  Uiso   1.00
H2892  H     0.91641   0.31070   0.58678   0.00000  Uiso   1.00
H2893  H     0.95780   0.33855   0.62153   0.00000  Uiso   1.00
H2894  H     0.04457   0.21638   0.53363   0.00000  Uiso   1.00
H2895  H     0.07588   0.17500   0.55519   0.00000  Uiso   1.00
H2896  H     0.06762   0.26217   0.54383   0.00000  Uiso   1.00
H2897  H     0.10239   0.22310   0.56139   0.00000  Uiso   1.00
H2898  H     0.16418   0.85173   0.81090   0.00000  Uiso   1.00
Cr2899 Cr    0.50982   0.67965   0.34616   0.00000  Uiso   1.00
Cr2900 Cr    0.90681   0.73879   0.67811   0.00000  Uiso   1.00
O2901  O     0.90331   0.74449   0.70844   0.00000  Uiso   1.00
O2902  O     0.86079   0.81694   0.78447   0.00000  Uiso   1.00
O2903  O     0.67469   0.76774   0.87362   0.00000  Uiso   1.00
O2904  O     0.69435   0.74091   0.84955   0.00000  Uiso   1.00
O2905  O     0.52217   0.63183   0.32905   0.00000  Uiso   1.00
O2906  O     0.53087   0.64465   0.34918   0.00000  Uiso   1.00
O2907  O     0.66160   0.51355   0.28397   0.00000  Uiso   1.00
O2908  O     0.70069   0.51478   0.25425   0.00000  Uiso   1.00
O2909  O     0.62384   0.57865   0.17239   0.00000  Uiso   1.00
O2910  O     0.66354   0.58229   0.15033   0.00000  Uiso   1.00
O2911  O     0.71256   0.67467   0.16921   0.00000  Uiso   1.00
O2912  O     0.66516   0.63162   0.12727   0.00000  Uiso   1.00
O2913  O     0.70769   0.66278   0.24479   0.00000  Uiso   1.00
O2914  O     0.72784   0.65069   0.21039   0.00000  Uiso   1.00
O2915  O     0.69633   0.53750   0.31695   0.00000  Uiso   1.00
O2916  O     0.71834   0.53459   0.27491   0.00000  Uiso   1.00
F2917  F     0.51644   0.67196   0.37855   0.00000  Uiso   1.00
C2918  C     0.88857   0.77470   0.73543   0.00000  Uiso   1.00
C2919  C     0.87983   0.79029   0.75075   0.00000  Uiso   1.00
C2920  C     0.68680   0.78567   0.80815   0.00000  Uiso   1.00
C2921  C     0.68896   0.76303   0.85169   0.00000  Uiso   1.00
C2922  C     0.68959   0.78550   0.82922   0.00000  Uiso   1.00
C2923  C     0.67996   0.81015   0.83267   0.00000  Uiso   1.00
C2924  C     0.56029   0.58338   0.33509   0.00000  Uiso   1.00
C2925  C     0.53436   0.62608   0.34304   0.00000  Uiso   1.00
C2926  C     0.55834   0.60388   0.34131   0.00000  Uiso   1.00
C2927  C     0.58159   0.60419   0.33975   0.00000  Uiso   1.00
C2928  C     0.64041   0.54367   0.24327   0.00000  Uiso   1.00
C2929  C     0.67735   0.51606   0.26081   0.00000  Uiso   1.00
C2930  C     0.66790   0.52991   0.24017   0.00000  Uiso   1.00
C2931  C     0.63278   0.55665   0.22101   0.00000  Uiso   1.00
C2932  C     0.64650   0.57411   0.17208   0.00000  Uiso   1.00
C2933  C     0.65230   0.56307   0.19591   0.00000  Uiso   1.00
C2934  C     0.68641   0.53806   0.21686   0.00000  Uiso   1.00
C2935  C     0.67922   0.55243   0.19379   0.00000  Uiso   1.00
C2936  C     0.69801   0.66101   0.14842   0.00000  Uiso   1.00
C2937  C     0.68671   0.64932   0.14358   0.00000  Uiso   1.00
C2938  C     0.69780   0.61632   0.27510   0.00000  Uiso   1.00
C2939  C     0.71650   0.64610   0.23421   0.00000  Uiso   1.00
C2940  C     0.71463   0.62114   0.24922   0.00000  Uiso   1.00
C2941  C     0.69729   0.59114   0.29038   0.00000  Uiso   1.00
C2942  C     0.70734   0.54760   0.29075   0.00000  Uiso   1.00
C2943  C     0.71164   0.57187   0.27857   0.00000  Uiso   1.00
C2944  C     0.72669   0.60299   0.23637   0.00000  Uiso   1.00
C2945  C     0.72528   0.57788   0.25128   0.00000  Uiso   1.00
H2946  H     0.88952   0.78387   0.71547   0.00000  Uiso   1.00
H2947  H     0.87573   0.81089   0.74184   0.00000  Uiso   1.00
H2948  H     0.71505   0.64938   0.15407   0.00000  Uiso   1.00
H2949  H     0.69762   0.63063   0.14111   0.00000  Uiso   1.00
H2950  H     0.68477   0.76906   0.80953   0.00000  Uiso   1.00
H2951  H     0.73658   0.60852   0.21579   0.00000  Uiso   1.00
H2952  H     0.73439   0.56350   0.24216   0.00000  Uiso   1.00
H2953  H     0.68552   0.63195   0.28288   0.00000  Uiso   1.00
H2954  H     0.68611   0.58679   0.31069   0.00000  Uiso   1.00
H2955  H     0.54487   0.58548   0.33061   0.00000  Uiso   1.00
H2956  H     0.58211   0.62151   0.33856   0.00000  Uiso   1.00
H2957  H     0.70540   0.53363   0.21640   0.00000  Uiso   1.00
H2958  H     0.69393   0.55518   0.17500   0.00000  Uiso   1.00
H2959  H     0.62636   0.54382   0.26218   0.00000  Uiso   1.00
H2960  H     0.61311   0.56138   0.22310   0.00000  Uiso   1.00
H2961  H     0.67319   0.81091   0.85173   0.00000  Uiso   1.00
Cr2962 Cr    0.79411   0.84772   0.01043   0.00000  Uiso   1.00
Cr2963 Cr    0.84773   0.79410   0.84773   0.00000  Uiso   1.00
Cr2964 Cr    0.01043   0.84773   0.79412   0.00000  Uiso   1.00
F2965  F     0.01611   0.86185   0.76018   0.00000  Uiso   1.00
Cr2966 Cr    0.01043   0.79410   0.84773   0.00000  Uiso   1.00
Cr2967 Cr    0.84773   0.84773   0.79412   0.00000  Uiso   1.00
Cr2968 Cr    0.79410   0.01043   0.84773   0.00000  Uiso   1.00
Cr2969 Cr    0.84773   0.01043   0.79412   0.00000  Uiso   1.00
F2970  F     0.86185   0.01612   0.76018   0.00000  Uiso   1.00
Cr2971 Cr    0.79411   0.84772   0.84773   0.00000  Uiso   1.00
F2972  F     0.76019   0.86185   0.86184   0.00000  Uiso   1.00
Cr2973 Cr    0.84774   0.79410   0.01043   0.00000  Uiso   1.00
F2974  F     0.86184   0.76020   0.01612   0.00000  Uiso   1.00
Cr2975 Cr    0.20589   0.15227   0.15228   0.00000  Uiso   1.00
Cr2976 Cr    0.15227   0.20590   0.98956   0.00000  Uiso   1.00
Cr2977 Cr    0.15227   0.98956   0.20589   0.00000  Uiso   1.00
Cr2978 Cr    0.98957   0.20589   0.15228   0.00000  Uiso   1.00
Cr2979 Cr    0.20589   0.98957   0.15228   0.00000  Uiso   1.00
F2980  F     0.23981   0.98388   0.13814   0.00000  Uiso   1.00
Cr2981 Cr    0.15227   0.15228   0.20589   0.00000  Uiso   1.00
Cr2982 Cr    0.15226   0.98957   0.15228   0.00000  Uiso   1.00
Cr2983 Cr    0.20590   0.15228   0.98956   0.00000  Uiso   1.00
F2984  F     0.23981   0.13814   0.98389   0.00000  Uiso   1.00
Cr2985 Cr    0.15227   0.20589   0.15228   0.00000  Uiso   1.00
F2986  F     0.13815   0.23982   0.13814   0.00000  Uiso   1.00
Cr2987 Cr    0.98957   0.15228   0.20589   0.00000  Uiso   1.00
F2988  F     0.98389   0.13814   0.23980   0.00000  Uiso   1.00
Cr2989 Cr    0.71589   0.28410   0.00000   0.00000  Uiso   1.00
O2990  O     0.68377   0.31622   0.00000   0.00000  Uiso   1.00
Cr2991 Cr    0.28410   0.71590   0.49999   0.00000  Uiso   1.00
O2992  O     0.31623   0.68378   0.49999   0.00000  Uiso   1.00
Cr2993 Cr    0.99999   0.50000   0.71590   0.00000  Uiso   1.00
O2994  O     0.00000   0.50000   0.68376   0.00000  Uiso   1.00
Cr2995 Cr    0.49999   0.00000   0.28410   0.00000  Uiso   1.00
O2996  O     0.50001   0.99999   0.31622   0.00000  Uiso   1.00
Cr2997 Cr    1.00000   0.71590   0.28410   0.00000  Uiso   1.00
O2998  O     1.00000   0.68377   0.31622   0.00000  Uiso   1.00
Cr2999 Cr    0.50000   0.28411   0.71590   0.00000  Uiso   1.00
O3000  O     0.50001   0.31623   0.68376   0.00000  Uiso   1.00
Cr3001 Cr    0.71590  -0.00000   0.49999   0.00000  Uiso   1.00
O3002  O     0.68377  -0.00000   0.49999   0.00000  Uiso   1.00
Cr3003 Cr    0.28411   0.49999   0.00000   0.00000  Uiso   1.00
O3004  O     0.31624   0.49999   0.00000   0.00000  Uiso   1.00
F3005  F     0.25047   0.49999   0.00000   0.00000  Uiso   1.00
Cr3006 Cr    0.28409   1.00000   0.71590   0.00000  Uiso   1.00
O3007  O     0.31623   0.00001   0.68376   0.00000  Uiso   1.00
Cr3008 Cr    0.71589   0.50000   0.28410   0.00000  Uiso   1.00
O3009  O     0.68377   0.50000   0.31622   0.00000  Uiso   1.00
F3010  F     0.74953   0.50000   0.25047   0.00000  Uiso   1.00
Cr3011 Cr    0.50001   0.71590   0.00000   0.00000  Uiso   1.00
O3012  O     0.50000   0.68376   0.00000   0.00000  Uiso   1.00
Cr3013 Cr   -0.00000   0.28410   0.49999   0.00000  Uiso   1.00
O3014  O     1.00000   0.31624   0.49999   0.00000  Uiso   1.00
Cr3015 Cr    0.28409   0.71590   0.00000   0.00000  Uiso   1.00
O3016  O     0.31623   0.68376   0.00000   0.00000  Uiso   1.00
F3017  F     0.25045   0.74955   0.00000   0.00000  Uiso   1.00
Cr3018 Cr    0.71589   0.28410   0.49999   0.00000  Uiso   1.00
O3019  O     0.68377   0.31624   0.49999   0.00000  Uiso   1.00
Cr3020 Cr   -0.00001   0.50000   0.28410   0.00000  Uiso   1.00
O3021  O     1.00000   0.50000   0.31622   0.00000  Uiso   1.00
F3022  F    -0.00001   0.50000   0.25047   0.00000  Uiso   1.00
Cr3023 Cr    0.49999   1.00000   0.71590   0.00000  Uiso   1.00
O3024  O     0.50000   0.00001   0.68376   0.00000  Uiso   1.00
Cr3025 Cr    1.00000   0.28410   0.71590   0.00000  Uiso   1.00
O3026  O     1.00001   0.31623   0.68376   0.00000  Uiso   1.00
Cr3027 Cr    0.50000   0.71590   0.28410   0.00000  Uiso   1.00
O3028  O     0.50000   0.68377   0.31622   0.00000  Uiso   1.00
Cr3029 Cr    0.28411  -0.00000   0.49999   0.00000  Uiso   1.00
O3030  O     0.31623  -0.00000   0.49999   0.00000  Uiso   1.00
F3031  F     0.25046  -0.00000   0.49999   0.00000  Uiso   1.00
Cr3032 Cr    0.71590   0.49999   0.00000   0.00000  Uiso   1.00
O3033  O     0.68377   0.49999   0.00000   0.00000  Uiso   1.00
Cr3034 Cr    0.71590   0.00000   0.28410   0.00000  Uiso   1.00
O3035  O     0.68378   0.99999   0.31622   0.00000  Uiso   1.00
Cr3036 Cr    0.28409   0.50000   0.71590   0.00000  Uiso   1.00
O3037  O     0.31624   0.50000   0.68376   0.00000  Uiso   1.00
Cr3038 Cr    0.49999   0.28410   0.00000   0.00000  Uiso   1.00
O3039  O     0.50001   0.31622   0.00000   0.00000  Uiso   1.00
Cr3040 Cr    0.99999   0.71590   0.49999   0.00000  Uiso   1.00
O3041  O    -0.00000   0.68378   0.49999   0.00000  Uiso   1.00
Cr3042 Cr    0.85420   0.39579   0.85420   0.00000  Uiso   1.00
Cr3043 Cr    0.39578   0.85422   0.39578   0.00000  Uiso   1.00
Cr3044 Cr    0.85420   0.85422   0.39578   0.00000  Uiso   1.00
Cr3045 Cr    0.39579   0.39579   0.85420   0.00000  Uiso   1.00
Cr3046 Cr    0.39579   0.85422   0.85420   0.00000  Uiso   1.00
F3047  F     0.41763   0.83237   0.83237   0.00000  Uiso   1.00
Cr3048 Cr    0.85421   0.39579   0.39578   0.00000  Uiso   1.00
F3049  F     0.83237   0.41763   0.41763   0.00000  Uiso   1.00
Cr3050 Cr    0.14579   0.60421   0.60421   0.00000  Uiso   1.00
Cr3051 Cr    0.60421   0.14580   0.14578   0.00000  Uiso   1.00
Cr3052 Cr    0.14578   0.14580   0.60421   0.00000  Uiso   1.00
Cr3053 Cr    0.60421   0.60420   0.14578   0.00000  Uiso   1.00
F3054  F     0.58237   0.58237   0.16763   0.00000  Uiso   1.00
Cr3055 Cr    0.60420   0.14580   0.60421   0.00000  Uiso   1.00
Cr3056 Cr    0.14579   0.60420   0.14578   0.00000  Uiso   1.00
F3057  F     0.16763   0.58237   0.16763   0.00000  Uiso   1.00
Cr3058 Cr    0.11382   0.66360   0.60877   0.00000  Uiso   1.00
Cr3059 Cr    0.66360   0.11382   0.11382   0.00000  Uiso   1.00
Cr3060 Cr    0.60876   0.11382   0.11382   0.00000  Uiso   1.00
F3061  F     0.60711   0.09630   0.09632   0.00000  Uiso   1.00
Cr3062 Cr    0.11383   0.60876   0.66359   0.00000  Uiso   1.00
F3063  F     0.09631   0.60712   0.70027   0.00000  Uiso   1.00
Cr3064 Cr    0.60876   0.11382   0.66359   0.00000  Uiso   1.00
Cr3065 Cr    0.11382   0.66361   0.11382   0.00000  Uiso   1.00
Cr3066 Cr    0.11382   0.60876   0.11382   0.00000  Uiso   1.00
Cr3067 Cr    0.66360   0.11381   0.60877   0.00000  Uiso   1.00
F3068  F     0.70027   0.09630   0.60711   0.00000  Uiso   1.00
Cr3069 Cr    0.66360   0.60876   0.11382   0.00000  Uiso   1.00
Cr3070 Cr    0.11382   0.11382   0.66359   0.00000  Uiso   1.00
F3071  F     0.09632   0.09630   0.70027   0.00000  Uiso   1.00
Cr3072 Cr    0.11382   0.11381   0.60877   0.00000  Uiso   1.00
Cr3073 Cr    0.60876   0.66361   0.11382   0.00000  Uiso   1.00
Cr3074 Cr    0.88618   0.33640   0.88619   0.00000  Uiso   1.00
Cr3075 Cr    0.33640   0.88618   0.39124   0.00000  Uiso   1.00
Cr3076 Cr    0.39124   0.88618   0.33640   0.00000  Uiso   1.00
F3077  F     0.39289   0.90369   0.29974   0.00000  Uiso   1.00
Cr3078 Cr    0.88618   0.39123   0.88619   0.00000  Uiso   1.00
F3079  F     0.90368   0.39290   0.90369   0.00000  Uiso   1.00
Cr3080 Cr    0.39124   0.88617   0.88619   0.00000  Uiso   1.00
Cr3081 Cr    0.88618   0.33639   0.39124   0.00000  Uiso   1.00
Cr3082 Cr    0.88618   0.39124   0.33640   0.00000  Uiso   1.00
Cr3083 Cr    0.33640   0.88617   0.88619   0.00000  Uiso   1.00
Cr3084 Cr    0.33640   0.39123   0.88619   0.00000  Uiso   1.00
Cr3085 Cr    0.88618   0.88618   0.39124   0.00000  Uiso   1.00
F3086  F     0.90368   0.90369   0.39290   0.00000  Uiso   1.00
Cr3087 Cr    0.88618   0.88618   0.33640   0.00000  Uiso   1.00
Cr3088 Cr    0.39124   0.33640   0.88619   0.00000  Uiso   1.00
F3089  F     0.39288   0.29973   0.90369   0.00000  Uiso   1.00
Cr3090 Cr    0.29932   0.29932   0.13333   0.00000  Uiso   1.00
O3091  O     0.29602   0.29603   0.10406   0.00000  Uiso   1.00
C3092  C     0.26664   0.26665   0.10164   0.00000  Uiso   1.00
C3093  C     0.25298   0.25298   0.10412   0.00000  Uiso   1.00
C3094  C     0.20626   0.20626   0.13540   0.00000  Uiso   1.00
C3095  C     0.22214   0.22215   0.12322   0.00000  Uiso   1.00
Cr3096 Cr    0.29932   0.29932   0.76804   0.00000  Uiso   1.00
O3097  O     0.29603   0.29603   0.80388   0.00000  Uiso   1.00
C3098  C     0.26663   0.26665   0.86508   0.00000  Uiso   1.00
C3099  C     0.25297   0.25298   0.88993   0.00000  Uiso   1.00
C3100  C     0.20625   0.20626   0.95208   0.00000  Uiso   1.00
C3101  C     0.22216   0.22214   0.93249   0.00000  Uiso   1.00
Cr3102 Cr    0.13332   0.76803   0.29933   0.00000  Uiso   1.00
O3103  O     0.10406   0.80388   0.29603   0.00000  Uiso   1.00
C3104  C     0.10165   0.86507   0.26664   0.00000  Uiso   1.00
C3105  C     0.10413   0.88991   0.25298   0.00000  Uiso   1.00
C3106  C     0.13540   0.95208   0.20626   0.00000  Uiso   1.00
C3107  C     0.12321   0.93249   0.22215   0.00000  Uiso   1.00
Cr3108 Cr    0.76804   0.13331   0.29933   0.00000  Uiso   1.00
O3109  O     0.80389   0.10406   0.29603   0.00000  Uiso   1.00
C3110  C     0.86508   0.10163   0.26664   0.00000  Uiso   1.00
C3111  C     0.88991   0.10411   0.25298   0.00000  Uiso   1.00
C3112  C     0.95207   0.13539   0.20626   0.00000  Uiso   1.00
C3113  C     0.93249   0.12321   0.22215   0.00000  Uiso   1.00
Cr3114 Cr    0.13332   0.29932   0.29933   0.00000  Uiso   1.00
O3115  O     0.10405   0.29602   0.29603   0.00000  Uiso   1.00
C3116  C     0.10164   0.26664   0.26664   0.00000  Uiso   1.00
C3117  C     0.10412   0.25297   0.25298   0.00000  Uiso   1.00
C3118  C     0.13541   0.20625   0.20626   0.00000  Uiso   1.00
C3119  C     0.12321   0.22214   0.22215   0.00000  Uiso   1.00
Cr3120 Cr    0.76804   0.29932   0.29933   0.00000  Uiso   1.00
O3121  O     0.80389   0.29602   0.29603   0.00000  Uiso   1.00
C3122  C     0.86507   0.26664   0.26664   0.00000  Uiso   1.00
C3123  C     0.88993   0.25297   0.25298   0.00000  Uiso   1.00
C3124  C     0.95208   0.20625   0.20626   0.00000  Uiso   1.00
C3125  C     0.93249   0.22214   0.22215   0.00000  Uiso   1.00
Cr3126 Cr    0.29932   0.13332   0.76804   0.00000  Uiso   1.00
O3127  O     0.29604   0.10405   0.80388   0.00000  Uiso   1.00
C3128  C     0.26664   0.10164   0.86508   0.00000  Uiso   1.00
C3129  C     0.25298   0.10412   0.88993   0.00000  Uiso   1.00
C3130  C     0.20626   0.13541   0.95208   0.00000  Uiso   1.00
C3131  C     0.22215   0.12321   0.93249   0.00000  Uiso   1.00
Cr3132 Cr    0.29932   0.76804   0.13333   0.00000  Uiso   1.00
O3133  O     0.29603   0.80389   0.10406   0.00000  Uiso   1.00
C3134  C     0.26664   0.86507   0.10164   0.00000  Uiso   1.00
C3135  C     0.25298   0.88992   0.10412   0.00000  Uiso   1.00
C3136  C     0.20627   0.95207   0.13540   0.00000  Uiso   1.00
C3137  C     0.22215   0.93249   0.12322   0.00000  Uiso   1.00
Cr3138 Cr    0.29932   0.13332   0.29933   0.00000  Uiso   1.00
O3139  O     0.29602   0.10406   0.29603   0.00000  Uiso   1.00
C3140  C     0.26664   0.10163   0.26664   0.00000  Uiso   1.00
C3141  C     0.25298   0.10411   0.25298   0.00000  Uiso   1.00
C3142  C     0.20626   0.13539   0.20626   0.00000  Uiso   1.00
C3143  C     0.22215   0.12321   0.22215   0.00000  Uiso   1.00
Cr3144 Cr    0.29933   0.76803   0.29933   0.00000  Uiso   1.00
O3145  O     0.29603   0.80388   0.29603   0.00000  Uiso   1.00
C3146  C     0.26664   0.86507   0.26664   0.00000  Uiso   1.00
C3147  C     0.25298   0.88991   0.25298   0.00000  Uiso   1.00
C3148  C     0.20625   0.95208   0.20626   0.00000  Uiso   1.00
C3149  C     0.22216   0.93249   0.22215   0.00000  Uiso   1.00
Cr3150 Cr    0.76803   0.29932   0.13333   0.00000  Uiso   1.00
O3151  O     0.80389   0.29603   0.10406   0.00000  Uiso   1.00
C3152  C     0.86508   0.26665   0.10164   0.00000  Uiso   1.00
C3153  C     0.88991   0.25298   0.10411   0.00000  Uiso   1.00
C3154  C     0.95209   0.20626   0.13540   0.00000  Uiso   1.00
C3155  C     0.93249   0.22215   0.12322   0.00000  Uiso   1.00
Cr3156 Cr    0.13331   0.29932   0.76804   0.00000  Uiso   1.00
O3157  O     0.10405   0.29603   0.80388   0.00000  Uiso   1.00
C3158  C     0.10164   0.26665   0.86508   0.00000  Uiso   1.00
C3159  C     0.10412   0.25298   0.88993   0.00000  Uiso   1.00
C3160  C     0.13539   0.20626   0.95208   0.00000  Uiso   1.00
C3161  C     0.12321   0.22214   0.93249   0.00000  Uiso   1.00
Cr3162 Cr    0.70068   0.70067   0.23195   0.00000  Uiso   1.00
O3163  O     0.70397   0.70397   0.19611   0.00000  Uiso   1.00
C3164  C     0.73334   0.73336   0.13493   0.00000  Uiso   1.00
C3165  C     0.74703   0.74701   0.11008   0.00000  Uiso   1.00
C3166  C     0.79373   0.79373   0.04793   0.00000  Uiso   1.00
C3167  C     0.77785   0.77785   0.06751   0.00000  Uiso   1.00
Cr3168 Cr    0.70068   0.70069   0.86668   0.00000  Uiso   1.00
O3169  O     0.70398   0.70396   0.89595   0.00000  Uiso   1.00
C3170  C     0.73336   0.73336   0.89837   0.00000  Uiso   1.00
C3171  C     0.74701   0.74702   0.89587   0.00000  Uiso   1.00
C3172  C     0.79373   0.79374   0.86459   0.00000  Uiso   1.00
C3173  C     0.77785   0.77785   0.87679   0.00000  Uiso   1.00
Cr3174 Cr    0.86667   0.23196   0.70068   0.00000  Uiso   1.00
O3175  O     0.89595   0.19611   0.70398   0.00000  Uiso   1.00
C3176  C     0.89835   0.13492   0.73337   0.00000  Uiso   1.00
C3177  C     0.89587   0.11008   0.74703   0.00000  Uiso   1.00
C3178  C     0.86459   0.04793   0.79375   0.00000  Uiso   1.00
C3179  C     0.87679   0.06750   0.77784   0.00000  Uiso   1.00
Cr3180 Cr    0.23196   0.86668   0.70068   0.00000  Uiso   1.00
O3181  O     0.19611   0.89595   0.70398   0.00000  Uiso   1.00
C3182  C     0.13492   0.89836   0.73337   0.00000  Uiso   1.00
C3183  C     0.11007   0.89588   0.74703   0.00000  Uiso   1.00
C3184  C     0.04791   0.86460   0.79375   0.00000  Uiso   1.00
C3185  C     0.06751   0.87679   0.77784   0.00000  Uiso   1.00
Cr3186 Cr    0.86668   0.70067   0.23195   0.00000  Uiso   1.00
O3187  O     0.89595   0.70397   0.19611   0.00000  Uiso   1.00
C3188  C     0.89835   0.73336   0.13493   0.00000  Uiso   1.00
C3189  C     0.89588   0.74701   0.11008   0.00000  Uiso   1.00
C3190  C     0.86460   0.79373   0.04793   0.00000  Uiso   1.00
C3191  C     0.87678   0.77785   0.06751   0.00000  Uiso   1.00
Cr3192 Cr    0.23196   0.70069   0.86668   0.00000  Uiso   1.00
O3193  O     0.19612   0.70396   0.89595   0.00000  Uiso   1.00
C3194  C     0.13492   0.73336   0.89837   0.00000  Uiso   1.00
C3195  C     0.11008   0.74702   0.89587   0.00000  Uiso   1.00
C3196  C     0.04792   0.79374   0.86459   0.00000  Uiso   1.00
C3197  C     0.06750   0.77786   0.87679   0.00000  Uiso   1.00
Cr3198 Cr    0.70068   0.86668   0.70068   0.00000  Uiso   1.00
O3199  O     0.70397   0.89595   0.70398   0.00000  Uiso   1.00
C3200  C     0.73336   0.89836   0.73337   0.00000  Uiso   1.00
C3201  C     0.74701   0.89588   0.74703   0.00000  Uiso   1.00
C3202  C     0.79373   0.86460   0.79375   0.00000  Uiso   1.00
C3203  C     0.77786   0.87679   0.77784   0.00000  Uiso   1.00
Cr3204 Cr    0.70068   0.23196   0.70068   0.00000  Uiso   1.00
O3205  O     0.70397   0.19611   0.70398   0.00000  Uiso   1.00
C3206  C     0.73336   0.13492   0.73337   0.00000  Uiso   1.00
C3207  C     0.74702   0.11008   0.74703   0.00000  Uiso   1.00
C3208  C     0.79373   0.04793   0.79375   0.00000  Uiso   1.00
C3209  C     0.77785   0.06750   0.77784   0.00000  Uiso   1.00
Cr3210 Cr    0.70069   0.86668   0.23195   0.00000  Uiso   1.00
O3211  O     0.70397   0.89595   0.19611   0.00000  Uiso   1.00
C3212  C     0.73336   0.89835   0.13493   0.00000  Uiso   1.00
C3213  C     0.74702   0.89589   0.11008   0.00000  Uiso   1.00
C3214  C     0.79373   0.86460   0.04793   0.00000  Uiso   1.00
C3215  C     0.77785   0.87678   0.06751   0.00000  Uiso   1.00
Cr3216 Cr    0.70069   0.23195   0.86668   0.00000  Uiso   1.00
O3217  O     0.70397   0.19610   0.89595   0.00000  Uiso   1.00
C3218  C     0.73336   0.13492   0.89837   0.00000  Uiso   1.00
C3219  C     0.74703   0.11008   0.89587   0.00000  Uiso   1.00
C3220  C     0.79374   0.04792   0.86459   0.00000  Uiso   1.00
C3221  C     0.77785   0.06750   0.87679   0.00000  Uiso   1.00
Cr3222 Cr    0.23196   0.70067   0.70068   0.00000  Uiso   1.00
O3223  O     0.19611   0.70397   0.70398   0.00000  Uiso   1.00
C3224  C     0.13492   0.73336   0.73337   0.00000  Uiso   1.00
C3225  C     0.11007   0.74702   0.74703   0.00000  Uiso   1.00
C3226  C     0.04792   0.79374   0.79375   0.00000  Uiso   1.00
C3227  C     0.06750   0.77786   0.77784   0.00000  Uiso   1.00
Cr3228 Cr    0.86668   0.70067   0.70068   0.00000  Uiso   1.00
O3229  O     0.89595   0.70397   0.70398   0.00000  Uiso   1.00
C3230  C     0.89835   0.73337   0.73337   0.00000  Uiso   1.00
C3231  C     0.89588   0.74702   0.74703   0.00000  Uiso   1.00
C3232  C     0.86460   0.79374   0.79375   0.00000  Uiso   1.00
C3233  C     0.87678   0.77785   0.77784   0.00000  Uiso   1.00
O3234  O     0.17085   0.17083   0.98747   0.00000  Uiso   1.00
O3235  O     0.17085   0.17085   0.17085   0.00000  Uiso   1.00
O3236  O     0.98746   0.17085   0.17085   0.00000  Uiso   1.00
O3237  O     0.17084   0.98746   0.17085   0.00000  Uiso   1.00
O3238  O     0.82915   0.82916   0.82916   0.00000  Uiso   1.00
O3239  O     0.82916   0.82916   0.01253   0.00000  Uiso   1.00
O3240  O     0.01253   0.82916   0.82916   0.00000  Uiso   1.00
O3241  O     0.82916   0.01253   0.82916   0.00000  Uiso   1.00
O3242  O     0.87633   0.37366   0.87632   0.00000  Uiso   1.00
O3243  O     0.37366   0.87632   0.37368   0.00000  Uiso   1.00
O3244  O     0.87632   0.87632   0.37368   0.00000  Uiso   1.00
O3245  O     0.37367   0.37366   0.87632   0.00000  Uiso   1.00
O3246  O     0.37367   0.87634   0.87632   0.00000  Uiso   1.00
O3247  O     0.87633   0.37367   0.37368   0.00000  Uiso   1.00
O3248  O     0.12367   0.62632   0.62633   0.00000  Uiso   1.00
O3249  O     0.62633   0.12368   0.12366   0.00000  Uiso   1.00
O3250  O     0.12367   0.12367   0.62633   0.00000  Uiso   1.00
O3251  O     0.62632   0.62633   0.12366   0.00000  Uiso   1.00
O3252  O     0.62632   0.12367   0.62633   0.00000  Uiso   1.00
O3253  O     0.12367   0.62633   0.12366   0.00000  Uiso   1.00
F3254  F     0.83144   0.70642   0.25573   0.00000  Uiso   1.00
F3255  F     0.25572   0.70643   0.83144   0.00000  Uiso   1.00
F3256  F     0.70642   0.70643   0.83144   0.00000  Uiso   1.00
F3257  F     0.83144   0.25572   0.70641   0.00000  Uiso   1.00
F3258  F     0.29358   0.16857   0.74428   0.00000  Uiso   1.00
F3259  F     0.29358   0.74427   0.16857   0.00000  Uiso   1.00
F3260  F     0.29357   0.29358   0.16857   0.00000  Uiso   1.00
C3261  C     0.18386   0.18385   0.02298   0.00000  Uiso   1.00
C3262  C     0.18319   0.18320   0.04526   0.00000  Uiso   1.00
C3263  C     0.18386   0.18387   0.10930   0.00000  Uiso   1.00
C3264  C     0.18320   0.18319   0.08835   0.00000  Uiso   1.00
C3265  C     0.02297   0.18385   0.18387   0.00000  Uiso   1.00
C3266  C     0.04525   0.18319   0.18321   0.00000  Uiso   1.00
C3267  C     0.10931   0.18385   0.18387   0.00000  Uiso   1.00
C3268  C     0.08833   0.18319   0.18321   0.00000  Uiso   1.00
C3269  C     0.18385   0.02296   0.18387   0.00000  Uiso   1.00
C3270  C     0.18321   0.04525   0.18320   0.00000  Uiso   1.00
C3271  C     0.18385   0.10931   0.18387   0.00000  Uiso   1.00
C3272  C     0.18320   0.08834   0.18321   0.00000  Uiso   1.00
C3273  C     0.81614   0.81615   0.89069   0.00000  Uiso   1.00
C3274  C     0.81680   0.81680   0.91166   0.00000  Uiso   1.00
C3275  C     0.81613   0.81614   0.97703   0.00000  Uiso   1.00
C3276  C     0.81680   0.81680   0.95473   0.00000  Uiso   1.00
C3277  C     0.81613   0.97703   0.81614   0.00000  Uiso   1.00
C3278  C     0.81679   0.95474   0.81680   0.00000  Uiso   1.00
C3279  C     0.81615   0.89068   0.81614   0.00000  Uiso   1.00
C3280  C     0.81681   0.91165   0.81680   0.00000  Uiso   1.00
C3281  C     0.89069   0.81614   0.81614   0.00000  Uiso   1.00
C3282  C     0.91165   0.81680   0.81680   0.00000  Uiso   1.00
C3283  C     0.97704   0.81614   0.81614   0.00000  Uiso   1.00
C3284  C     0.95473   0.81680   0.81680   0.00000  Uiso   1.00
C3285  C     0.15850   0.69469   0.69470   0.00000  Uiso   1.00
C3286  C     0.14588   0.68725   0.68725   0.00000  Uiso   1.00
C3287  C     0.12987   0.65361   0.65361   0.00000  Uiso   1.00
C3288  C     0.14208   0.66184   0.66184   0.00000  Uiso   1.00
C3289  C     0.69470   0.15850   0.95210   0.00000  Uiso   1.00
C3290  C     0.65361   0.12987   0.06291   0.00000  Uiso   1.00
C3291  C     0.66184   0.14207   0.03424   0.00000  Uiso   1.00
C3292  C     0.69471   0.95209   0.15849   0.00000  Uiso   1.00
C3293  C     0.65362   0.06290   0.12986   0.00000  Uiso   1.00
C3294  C     0.66184   0.03424   0.14208   0.00000  Uiso   1.00
C3295  C     0.95211   0.69469   0.69470   0.00000  Uiso   1.00
C3296  C     0.97960   0.68725   0.68725   0.00000  Uiso   1.00
C3297  C     0.06291   0.65361   0.65361   0.00000  Uiso   1.00
C3298  C     0.03425   0.66184   0.66184   0.00000  Uiso   1.00
C3299  C     0.69469   0.15850   0.69470   0.00000  Uiso   1.00
C3300  C     0.68725   0.14588   0.68725   0.00000  Uiso   1.00
C3301  C     0.65362   0.12986   0.65361   0.00000  Uiso   1.00
C3302  C     0.66184   0.14208   0.66184   0.00000  Uiso   1.00
C3303  C     0.95210   0.69469   0.15849   0.00000  Uiso   1.00
C3304  C     0.06291   0.65361   0.12986   0.00000  Uiso   1.00
C3305  C     0.03425   0.66183   0.14208   0.00000  Uiso   1.00
C3306  C     0.15849   0.69471   0.95210   0.00000  Uiso   1.00
C3307  C     0.12987   0.65360   0.06291   0.00000  Uiso   1.00
C3308  C     0.14208   0.66184   0.03424   0.00000  Uiso   1.00
C3309  C     0.69470   0.95209   0.69470   0.00000  Uiso   1.00
C3310  C     0.68724   0.97960   0.68725   0.00000  Uiso   1.00
C3311  C     0.65361   0.06290   0.65361   0.00000  Uiso   1.00
C3312  C     0.66185   0.03423   0.66184   0.00000  Uiso   1.00
C3313  C     0.69470   0.69469   0.15849   0.00000  Uiso   1.00
C3314  C     0.68725   0.68725   0.14588   0.00000  Uiso   1.00
C3315  C     0.65362   0.65361   0.12986   0.00000  Uiso   1.00
C3316  C     0.66184   0.66183   0.14208   0.00000  Uiso   1.00
C3317  C     0.15850   0.95209   0.69470   0.00000  Uiso   1.00
C3318  C     0.12987   0.06290   0.65361   0.00000  Uiso   1.00
C3319  C     0.14208   0.03423   0.66184   0.00000  Uiso   1.00
C3320  C     0.95209   0.15850   0.69470   0.00000  Uiso   1.00
C3321  C     0.06291   0.12986   0.65361   0.00000  Uiso   1.00
C3322  C     0.03425   0.14208   0.66184   0.00000  Uiso   1.00
C3323  C     0.69469   0.69471   0.95210   0.00000  Uiso   1.00
C3324  C     0.68725   0.68725   0.97960   0.00000  Uiso   1.00
C3325  C     0.65361   0.65360   0.06291   0.00000  Uiso   1.00
C3326  C     0.66184   0.66184   0.03424   0.00000  Uiso   1.00
C3327  C     0.84149   0.30530   0.04791   0.00000  Uiso   1.00
C3328  C     0.87013   0.34639   0.93709   0.00000  Uiso   1.00
C3329  C     0.85792   0.33816   0.96576   0.00000  Uiso   1.00
C3330  C     0.30529   0.84149   0.30531   0.00000  Uiso   1.00
C3331  C     0.31275   0.85411   0.31275   0.00000  Uiso   1.00
C3332  C     0.34639   0.87013   0.34639   0.00000  Uiso   1.00
C3333  C     0.33816   0.85791   0.33817   0.00000  Uiso   1.00
C3334  C     0.30529   0.04790   0.30531   0.00000  Uiso   1.00
C3335  C     0.31274   0.02039   0.31275   0.00000  Uiso   1.00
C3336  C     0.34639   0.93709   0.34639   0.00000  Uiso   1.00
C3337  C     0.33816   0.96576   0.33817   0.00000  Uiso   1.00
C3338  C     0.04789   0.30530   0.84150   0.00000  Uiso   1.00
C3339  C     0.93710   0.34639   0.87013   0.00000  Uiso   1.00
C3340  C     0.96575   0.33816   0.85793   0.00000  Uiso   1.00
C3341  C     0.30530   0.84149   0.04791   0.00000  Uiso   1.00
C3342  C     0.34639   0.87012   0.93709   0.00000  Uiso   1.00
C3343  C     0.33816   0.85792   0.96576   0.00000  Uiso   1.00
C3344  C     0.04790   0.30530   0.30531   0.00000  Uiso   1.00
C3345  C     0.02039   0.31276   0.31275   0.00000  Uiso   1.00
C3346  C     0.93709   0.34640   0.34639   0.00000  Uiso   1.00
C3347  C     0.96575   0.33815   0.33817   0.00000  Uiso   1.00
C3348  C     0.84150   0.30530   0.30531   0.00000  Uiso   1.00
C3349  C     0.85410   0.31276   0.31275   0.00000  Uiso   1.00
C3350  C     0.87012   0.34640   0.34639   0.00000  Uiso   1.00
C3351  C     0.85791   0.33815   0.33817   0.00000  Uiso   1.00
C3352  C     0.30530   0.04790   0.84150   0.00000  Uiso   1.00
C3353  C     0.34639   0.93709   0.87013   0.00000  Uiso   1.00
C3354  C     0.33816   0.96575   0.85793   0.00000  Uiso   1.00
C3355  C     0.30529   0.30530   0.04791   0.00000  Uiso   1.00
C3356  C     0.31274   0.31275   0.02039   0.00000  Uiso   1.00
C3357  C     0.34639   0.34639   0.93709   0.00000  Uiso   1.00
C3358  C     0.33816   0.33815   0.96576   0.00000  Uiso   1.00
C3359  C     0.84149   0.04790   0.30531   0.00000  Uiso   1.00
C3360  C     0.87013   0.93709   0.34639   0.00000  Uiso   1.00
C3361  C     0.85792   0.96576   0.33817   0.00000  Uiso   1.00
C3362  C     0.04789   0.84149   0.30531   0.00000  Uiso   1.00
C3363  C     0.93709   0.87013   0.34639   0.00000  Uiso   1.00
C3364  C     0.96576   0.85791   0.33817   0.00000  Uiso   1.00
C3365  C     0.30529   0.30530   0.84150   0.00000  Uiso   1.00
C3366  C     0.31275   0.31275   0.85411   0.00000  Uiso   1.00
C3367  C     0.34639   0.34639   0.87013   0.00000  Uiso   1.00
C3368  C     0.33816   0.33816   0.85793   0.00000  Uiso   1.00
O3369  O     0.98149   0.87923   0.83814   0.00000  Uiso   1.00
C3370  C     0.94187   0.91945   0.83955   0.00000  Uiso   1.00
H3371  H     0.94944   0.90835   0.85531   0.00000  Uiso   1.00
O3372  O     0.87922   0.98148   0.80113   0.00000  Uiso   1.00
C3373  C     0.91944   0.94187   0.79913   0.00000  Uiso   1.00
H3374  H     0.90836   0.94944   0.78689   0.00000  Uiso   1.00
O3375  O     0.98148   0.87922   0.80113   0.00000  Uiso   1.00
C3376  C     0.94187   0.91945   0.79913   0.00000  Uiso   1.00
H3377  H     0.94945   0.90835   0.78689   0.00000  Uiso   1.00
O3378  O     0.87923   0.98149   0.83814   0.00000  Uiso   1.00
C3379  C     0.91945   0.94187   0.83955   0.00000  Uiso   1.00
H3380  H     0.90835   0.94944   0.85531   0.00000  Uiso   1.00
C3381  C     0.97703   0.89068   0.81614   0.00000  Uiso   1.00
C3382  C     0.95474   0.91165   0.81680   0.00000  Uiso   1.00
C3383  C     0.89068   0.97703   0.81614   0.00000  Uiso   1.00
C3384  C     0.91165   0.95474   0.81680   0.00000  Uiso   1.00
C3385  C     0.58337   0.33508   0.02124   0.00000  Uiso   1.00
H3386  H     0.58548   0.33060   0.03904   0.00000  Uiso   1.00
C3387  C     0.56030   0.33508   0.02124   0.00000  Uiso   1.00
H3388  H     0.54486   0.33060   0.03904   0.00000  Uiso   1.00
C3389  C     0.56030   0.02123   0.33509   0.00000  Uiso   1.00
H3390  H     0.54486   0.03902   0.33061   0.00000  Uiso   1.00
C3391  C     0.58338   0.02123   0.33509   0.00000  Uiso   1.00
H3392  H     0.58549   0.03902   0.33061   0.00000  Uiso   1.00
C3393  C     0.02124   0.56031   0.58337   0.00000  Uiso   1.00
H3394  H     0.03902   0.54486   0.58550   0.00000  Uiso   1.00
C3395  C     0.02124   0.58338   0.56030   0.00000  Uiso   1.00
H3396  H     0.03903   0.58549   0.54486   0.00000  Uiso   1.00
O3397  O     0.83815   0.98149   0.87923   0.00000  Uiso   1.00
C3398  C     0.83954   0.94187   0.91946   0.00000  Uiso   1.00
H3399  H     0.85531   0.94944   0.90835   0.00000  Uiso   1.00
O3400  O     0.80113   0.87923   0.98149   0.00000  Uiso   1.00
C3401  C     0.79913   0.91945   0.94187   0.00000  Uiso   1.00
H3402  H     0.78688   0.90836   0.94945   0.00000  Uiso   1.00
O3403  O     0.80114   0.98149   0.87923   0.00000  Uiso   1.00
C3404  C     0.79912   0.94187   0.91946   0.00000  Uiso   1.00
H3405  H     0.78690   0.94944   0.90835   0.00000  Uiso   1.00
O3406  O     0.83815   0.87923   0.98149   0.00000  Uiso   1.00
C3407  C     0.83955   0.91945   0.94187   0.00000  Uiso   1.00
H3408  H     0.85530   0.90836   0.94945   0.00000  Uiso   1.00
C3409  C     0.81614   0.97702   0.89069   0.00000  Uiso   1.00
C3410  C     0.81680   0.95475   0.91166   0.00000  Uiso   1.00
C3411  C     0.81614   0.89069   0.97703   0.00000  Uiso   1.00
C3412  C     0.81680   0.91167   0.95473   0.00000  Uiso   1.00
C3413  C     0.02124   0.58338   0.33509   0.00000  Uiso   1.00
H3414  H     0.03903   0.58549   0.33061   0.00000  Uiso   1.00
C3415  C     0.02124   0.56031   0.33509   0.00000  Uiso   1.00
H3416  H     0.03903   0.54488   0.33061   0.00000  Uiso   1.00
C3417  C     0.33508   0.56029   0.02124   0.00000  Uiso   1.00
H3418  H     0.33062   0.54486   0.03904   0.00000  Uiso   1.00
C3419  C     0.33509   0.58337   0.02124   0.00000  Uiso   1.00
H3420  H     0.33061   0.58549   0.03904   0.00000  Uiso   1.00
C3421  C     0.58337   0.02124   0.56030   0.00000  Uiso   1.00
H3422  H     0.58549   0.03903   0.54486   0.00000  Uiso   1.00
C3423  C     0.56029   0.02125   0.58337   0.00000  Uiso   1.00
H3424  H     0.54487   0.03903   0.58550   0.00000  Uiso   1.00
O3425  O     0.87924   0.83814   0.98149   0.00000  Uiso   1.00
C3426  C     0.91944   0.83955   0.94187   0.00000  Uiso   1.00
H3427  H     0.90835   0.85531   0.94945   0.00000  Uiso   1.00
O3428  O     0.98148   0.80113   0.87923   0.00000  Uiso   1.00
C3429  C     0.94187   0.79914   0.91946   0.00000  Uiso   1.00
H3430  H     0.94946   0.78689   0.90835   0.00000  Uiso   1.00
O3431  O     0.98150   0.83814   0.87923   0.00000  Uiso   1.00
C3432  C     0.94187   0.83954   0.91946   0.00000  Uiso   1.00
H3433  H     0.94945   0.85530   0.90835   0.00000  Uiso   1.00
O3434  O     0.87922   0.80113   0.98149   0.00000  Uiso   1.00
C3435  C     0.91945   0.79912   0.94187   0.00000  Uiso   1.00
H3436  H     0.90835   0.78690   0.94945   0.00000  Uiso   1.00
C3437  C     0.97702   0.81615   0.89069   0.00000  Uiso   1.00
C3438  C     0.95474   0.81680   0.91166   0.00000  Uiso   1.00
C3439  C     0.89068   0.81614   0.97703   0.00000  Uiso   1.00
C3440  C     0.91166   0.81680   0.95473   0.00000  Uiso   1.00
C3441  C     0.33509   0.02125   0.58337   0.00000  Uiso   1.00
H3442  H     0.33061   0.03903   0.58550   0.00000  Uiso   1.00
C3443  C     0.33507   0.02124   0.56030   0.00000  Uiso   1.00
H3444  H     0.33060   0.03903   0.54486   0.00000  Uiso   1.00
C3445  C     0.02124   0.33507   0.56030   0.00000  Uiso   1.00
H3446  H     0.03903   0.33061   0.54486   0.00000  Uiso   1.00
C3447  C     0.02125   0.33508   0.58337   0.00000  Uiso   1.00
H3448  H     0.03902   0.33061   0.58550   0.00000  Uiso   1.00
C3449  C     0.56030   0.58337   0.02124   0.00000  Uiso   1.00
H3450  H     0.54487   0.58549   0.03904   0.00000  Uiso   1.00
C3451  C     0.58339   0.56029   0.02124   0.00000  Uiso   1.00
H3452  H     0.58549   0.54486   0.03904   0.00000  Uiso   1.00
O3453  O     0.01850   0.12077   0.19888   0.00000  Uiso   1.00
C3454  C     0.05814   0.08054   0.20086   0.00000  Uiso   1.00
H3455  H     0.05056   0.09164   0.21310   0.00000  Uiso   1.00
O3456  O     0.12077   0.01851   0.16184   0.00000  Uiso   1.00
C3457  C     0.08055   0.05812   0.16046   0.00000  Uiso   1.00
H3458  H     0.09163   0.05055   0.14469   0.00000  Uiso   1.00
O3459  O     0.01851   0.12076   0.16184   0.00000  Uiso   1.00
C3460  C     0.05813   0.08054   0.16046   0.00000  Uiso   1.00
H3461  H     0.05056   0.09164   0.14469   0.00000  Uiso   1.00
O3462  O     0.12076   0.01851   0.19888   0.00000  Uiso   1.00
C3463  C     0.08055   0.05813   0.20086   0.00000  Uiso   1.00
H3464  H     0.09164   0.05055   0.21310   0.00000  Uiso   1.00
C3465  C     0.02297   0.10931   0.18387   0.00000  Uiso   1.00
C3466  C     0.04526   0.08834   0.18321   0.00000  Uiso   1.00
C3467  C     0.10932   0.02296   0.18387   0.00000  Uiso   1.00
C3468  C     0.08833   0.04525   0.18321   0.00000  Uiso   1.00
C3469  C     0.66491   0.41662   0.97876   0.00000  Uiso   1.00
H3470  H     0.66939   0.41450   0.96097   0.00000  Uiso   1.00
C3471  C     0.66491   0.43970   0.97876   0.00000  Uiso   1.00
H3472  H     0.66939   0.45513   0.96097   0.00000  Uiso   1.00
C3473  C     0.43969   0.97877   0.41662   0.00000  Uiso   1.00
H3474  H     0.45513   0.96096   0.41451   0.00000  Uiso   1.00
C3475  C     0.41662   0.97876   0.43969   0.00000  Uiso   1.00
H3476  H     0.41450   0.96097   0.45513   0.00000  Uiso   1.00
C3477  C     0.97875   0.43970   0.66492   0.00000  Uiso   1.00
H3478  H     0.96097   0.45514   0.66938   0.00000  Uiso   1.00
C3479  C     0.97875   0.41662   0.66492   0.00000  Uiso   1.00
H3480  H     0.96097   0.41451   0.66938   0.00000  Uiso   1.00
C3481  C     0.43969   0.66493   0.97876   0.00000  Uiso   1.00
H3482  H     0.45513   0.66939   0.96097   0.00000  Uiso   1.00
C3483  C     0.41662   0.66493   0.97876   0.00000  Uiso   1.00
H3484  H     0.41450   0.66939   0.96097   0.00000  Uiso   1.00
C3485  C     0.97877   0.41662   0.43969   0.00000  Uiso   1.00
H3486  H     0.96097   0.41451   0.45513   0.00000  Uiso   1.00
C3487  C     0.97876   0.43971   0.41662   0.00000  Uiso   1.00
H3488  H     0.96096   0.45513   0.41451   0.00000  Uiso   1.00
O3489  O     0.01851   0.16186   0.12076   0.00000  Uiso   1.00
C3490  C     0.05813   0.16045   0.08055   0.00000  Uiso   1.00
H3491  H     0.05056   0.14470   0.09164   0.00000  Uiso   1.00
O3492  O     0.12076   0.19888   0.01852   0.00000  Uiso   1.00
C3493  C     0.08054   0.20087   0.05814   0.00000  Uiso   1.00
H3494  H     0.09164   0.21311   0.05056   0.00000  Uiso   1.00
O3495  O     0.12077   0.16185   0.01852   0.00000  Uiso   1.00
C3496  C     0.08054   0.16044   0.05814   0.00000  Uiso   1.00
H3497  H     0.09165   0.14469   0.05056   0.00000  Uiso   1.00
O3498  O     0.01851   0.19886   0.12076   0.00000  Uiso   1.00
C3499  C     0.05813   0.20087   0.08055   0.00000  Uiso   1.00
H3500  H     0.05055   0.21311   0.09164   0.00000  Uiso   1.00
C3501  C     0.10932   0.18385   0.02298   0.00000  Uiso   1.00
C3502  C     0.08833   0.18320   0.04526   0.00000  Uiso   1.00
C3503  C     0.02297   0.18387   0.10930   0.00000  Uiso   1.00
C3504  C     0.04526   0.18319   0.08835   0.00000  Uiso   1.00
C3505  C     0.41662   0.97876   0.66492   0.00000  Uiso   1.00
H3506  H     0.41450   0.96097   0.66938   0.00000  Uiso   1.00
C3507  C     0.43970   0.97876   0.66492   0.00000  Uiso   1.00
H3508  H     0.45513   0.96097   0.66938   0.00000  Uiso   1.00
C3509  C     0.41661   0.43970   0.97876   0.00000  Uiso   1.00
H3510  H     0.41450   0.45513   0.96097   0.00000  Uiso   1.00
C3511  C     0.43969   0.41662   0.97876   0.00000  Uiso   1.00
H3512  H     0.45513   0.41450   0.96097   0.00000  Uiso   1.00
C3513  C     0.66492   0.97875   0.43969   0.00000  Uiso   1.00
H3514  H     0.66939   0.96097   0.45513   0.00000  Uiso   1.00
C3515  C     0.66491   0.97877   0.41662   0.00000  Uiso   1.00
H3516  H     0.66939   0.96096   0.41451   0.00000  Uiso   1.00
O3517  O     0.19887   0.01851   0.12076   0.00000  Uiso   1.00
C3518  C     0.20087   0.05813   0.08055   0.00000  Uiso   1.00
H3519  H     0.21311   0.05056   0.09164   0.00000  Uiso   1.00
O3520  O     0.16185   0.12076   0.01852   0.00000  Uiso   1.00
C3521  C     0.16045   0.08055   0.05814   0.00000  Uiso   1.00
H3522  H     0.14469   0.09164   0.05056   0.00000  Uiso   1.00
O3523  O     0.16186   0.01851   0.12076   0.00000  Uiso   1.00
C3524  C     0.16045   0.05813   0.08055   0.00000  Uiso   1.00
H3525  H     0.14469   0.05056   0.09164   0.00000  Uiso   1.00
O3526  O     0.19887   0.12076   0.01852   0.00000  Uiso   1.00
C3527  C     0.20087   0.08055   0.05814   0.00000  Uiso   1.00
H3528  H     0.21312   0.09164   0.05056   0.00000  Uiso   1.00
C3529  C     0.18386   0.02297   0.10930   0.00000  Uiso   1.00
C3530  C     0.18319   0.04526   0.08835   0.00000  Uiso   1.00
C3531  C     0.18386   0.10930   0.02298   0.00000  Uiso   1.00
C3532  C     0.18320   0.08835   0.04526   0.00000  Uiso   1.00
C3533  C     0.97876   0.66492   0.41662   0.00000  Uiso   1.00
H3534  H     0.96096   0.66939   0.41451   0.00000  Uiso   1.00
C3535  C     0.97875   0.66492   0.43969   0.00000  Uiso   1.00
H3536  H     0.96097   0.66939   0.45513   0.00000  Uiso   1.00
F3537  F     0.25045   0.00000   0.74954   0.00000  Uiso   1.00
F3538  F     1.00000   0.25045   0.49999   0.00000  Uiso   1.00
F3539  F     0.49999   0.00000   0.74954   0.00000  Uiso   1.00
Si3540 Si    0.21132   0.17130   0.41248   0.00000  Uiso   1.00
Si3541 Si    0.15422   0.18385   0.48836   0.00000  Uiso   1.00
Si3542 Si    0.21529   0.15693   0.46669   0.00000  Uiso   1.00
Si3543 Si    0.15017   0.19745   0.43443   0.00000  Uiso   1.00
O3544  O     0.14928   0.20107   0.45957   0.00000  Uiso   1.00
O3545  O     0.18376   0.16085   0.48442   0.00000  Uiso   1.00
O3546  O     0.21865   0.17093   0.43494   0.00000  Uiso   1.00
O3547  O     0.17934   0.17666   0.42303   0.00000  Uiso   1.00
C3548  C     0.23957   0.18331   0.39455   0.00000  Uiso   1.00
C3549  C     0.21714   0.14316   0.40541   0.00000  Uiso   1.00
C3550  C     0.14525   0.15377   0.51019   0.00000  Uiso   1.00
C3551  C     0.15047   0.20202   0.50572   0.00000  Uiso   1.00
C3552  C     0.22668   0.18205   0.45957   0.00000  Uiso   1.00
C3553  C     0.23800   0.12449   0.47546   0.00000  Uiso   1.00
C3554  C     0.13870   0.23191   0.41771   0.00000  Uiso   1.00
C3555  C     0.12418   0.18607   0.46195   0.00000  Uiso   1.00
H3556  H     0.23536   0.19993   0.39982   0.00000  Uiso   1.00
H3557  H     0.25818   0.16832   0.39878   0.00000  Uiso   1.00
H3558  H     0.24152   0.19119   0.37399   0.00000  Uiso   1.00
H3559  H     0.19833   0.13901   0.41455   0.00000  Uiso   1.00
H3560  H     0.23301   0.12696   0.41278   0.00000  Uiso   1.00
H3561  H     0.22260   0.15004   0.38327   0.00000  Uiso   1.00
H3562  H     0.15191   0.14394   0.52726   0.00000  Uiso   1.00
H3563  H     0.12405   0.15797   0.51763   0.00000  Uiso   1.00
H3564  H     0.15352   0.13956   0.50064   0.00000  Uiso   1.00
H3565  H     0.13407   0.19970   0.52365   0.00000  Uiso   1.00
H3566  H     0.16843   0.19649   0.50968   0.00000  Uiso   1.00
H3567  H     0.14156   0.22304   0.49393   0.00000  Uiso   1.00
H3568  H     0.22729   0.17994   0.47809   0.00000  Uiso   1.00
H3569  H     0.21283   0.20106   0.45133   0.00000  Uiso   1.00
H3570  H     0.24659   0.18053   0.44523   0.00000  Uiso   1.00
H3571  H     0.23486   0.11777   0.49633   0.00000  Uiso   1.00
H3572  H     0.25721   0.12627   0.46351   0.00000  Uiso   1.00
H3573  H     0.23747   0.11059   0.46938   0.00000  Uiso   1.00
H3574  H     0.12401   0.24256   0.43229   0.00000  Uiso   1.00
H3575  H     0.15714   0.23595   0.40623   0.00000  Uiso   1.00
H3576  H     0.12856   0.23340   0.40656   0.00000  Uiso   1.00
H3577  H     0.10927   0.19179   0.45421   0.00000  Uiso   1.00
H3578  H     0.13343   0.16444   0.46994   0.00000  Uiso   1.00
H3579  H     0.11443   0.19406   0.47641   0.00000  Uiso   1.00
Si3580 Si    0.05048   0.40545   0.01021   0.00000  Uiso   1.00
Si3581 Si    0.07910   0.43337   0.04093   0.00000  Uiso   1.00
Si3582 Si    0.09080   0.43461  -0.01481   0.00000  Uiso   1.00
Si3583 Si    0.03941   0.40346   0.06607   0.00000  Uiso   1.00
O3584  O     0.05117   0.42691   0.05601   0.00000  Uiso   1.00
O3585  O     0.09492   0.42732   0.01273   0.00000  Uiso   1.00
O3586  O     0.06417   0.42882  -0.00739   0.00000  Uiso   1.00
O3587  O     0.04956   0.39380   0.04107   0.00000  Uiso   1.00
C3588  C     0.02732   0.42811  -0.00780   0.00000  Uiso   1.00
C3589  C     0.05826   0.37006   0.01842   0.00000  Uiso   1.00
C3590  C     0.10611   0.40632   0.05085   0.00000  Uiso   1.00
C3591  C     0.08030   0.46370   0.03473   0.00000  Uiso   1.00
C3592  C     0.07236   0.46611  -0.03403   0.00000  Uiso   1.00
C3593  C     0.12117   0.42262  -0.03791   0.00000  Uiso   1.00
C3594  C     0.00597   0.42160   0.08203   0.00000  Uiso   1.00
C3595  C     0.06141   0.38552   0.08466   0.00000  Uiso   1.00
H3596  H     0.01134   0.42152  -0.00191   0.00000  Uiso   1.00
H3597  H     0.03778   0.43272  -0.02884   0.00000  Uiso   1.00
H3598  H     0.01922   0.44643  -0.00294   0.00000  Uiso   1.00
H3599  H     0.07854   0.35987   0.01922   0.00000  Uiso   1.00
H3600  H     0.04304   0.36254   0.03617   0.00000  Uiso   1.00
H3601  H     0.06009   0.36730   0.00121   0.00000  Uiso   1.00
H3602  H     0.10509   0.38927   0.05097   0.00000  Uiso   1.00
H3603  H     0.12360   0.41122   0.03654   0.00000  Uiso   1.00
H3604  H     0.10397   0.40514   0.06999   0.00000  Uiso   1.00
H3605  H     0.09835   0.46713   0.01869   0.00000  Uiso   1.00
H3606  H     0.06298   0.48015   0.02871   0.00000  Uiso   1.00
H3607  H     0.07957   0.46563   0.05219   0.00000  Uiso   1.00
H3608  H     0.05445   0.47340  -0.02099   0.00000  Uiso   1.00
H3609  H     0.08352   0.47890  -0.04173   0.00000  Uiso   1.00
H3610  H     0.06997   0.46452  -0.04855   0.00000  Uiso   1.00
H3611  H     0.13112   0.40319  -0.02598   0.00000  Uiso   1.00
H3612  H     0.11688   0.42149  -0.05204   0.00000  Uiso   1.00
H3613  H     0.13152   0.43650  -0.04680   0.00000  Uiso   1.00
H3614  H    -0.00658   0.41050   0.09123   0.00000  Uiso   1.00
H3615  H    -0.00120   0.43753   0.06572   0.00000  Uiso   1.00
H3616  H     0.00596   0.42819   0.09513   0.00000  Uiso   1.00
H3617  H     0.06319   0.39986   0.08965   0.00000  Uiso   1.00
H3618  H     0.05288   0.37073   0.10228   0.00000  Uiso   1.00
H3619  H     0.07977   0.37614   0.07168   0.00000  Uiso   1.00
Si3620 Si    0.13622   0.42157   0.35043   0.00000  Uiso   1.00
Si3621 Si    0.12405   0.46528   0.39631   0.00000  Uiso   1.00
Si3622 Si    0.08703   0.45763   0.38222   0.00000  Uiso   1.00
Si3623 Si    0.17330   0.42992   0.36378   0.00000  Uiso   1.00
O3624  O     0.15060   0.44017   0.38906   0.00000  Uiso   1.00
O3625  O     0.10288   0.47182   0.38331   0.00000  Uiso   1.00
O3626  O     0.10847   0.43115   0.37356   0.00000  Uiso   1.00
O3627  O     0.15864   0.43129   0.34678   0.00000  Uiso   1.00
C3628  C     0.12577   0.39310   0.36538   0.00000  Uiso   1.00
C3629  C     0.13837   0.43633   0.31685   0.00000  Uiso   1.00
C3630  C     0.10485   0.46369   0.43063   0.00000  Uiso   1.00
C3631  C     0.12459   0.49837   0.37625   0.00000  Uiso   1.00
C3632  C     0.06461   0.47896   0.36473   0.00000  Uiso   1.00
C3633  C     0.07368   0.43627   0.41375   0.00000  Uiso   1.00
C3634  C     0.17678   0.45986   0.35667   0.00000  Uiso   1.00
C3635  C     0.19445   0.39924   0.37822   0.00000  Uiso   1.00
H3636  H     0.14330   0.38161   0.35288   0.00000  Uiso   1.00
H3637  H     0.12264   0.38211   0.38715   0.00000  Uiso   1.00
H3638  H     0.10679   0.39898   0.36372   0.00000  Uiso   1.00
H3639  H     0.11928   0.44179   0.31500   0.00000  Uiso   1.00
H3640  H     0.14524   0.45335   0.30502   0.00000  Uiso   1.00
H3641  H     0.15336   0.42227   0.30775   0.00000  Uiso   1.00
H3642  H     0.10684   0.44295   0.44147   0.00000  Uiso   1.00
H3643  H     0.08451   0.47697   0.43322   0.00000  Uiso   1.00
H3644  H     0.11545   0.46883   0.43470   0.00000  Uiso   1.00
H3645  H     0.13820   0.50314   0.37892   0.00000  Uiso   1.00
H3646  H     0.10464   0.51089   0.38228   0.00000  Uiso   1.00
H3647  H     0.13192   0.49961   0.35534   0.00000  Uiso   1.00
H3648  H     0.06610   0.46489   0.35756   0.00000  Uiso   1.00
H3649  H     0.04499   0.48687   0.37822   0.00000  Uiso   1.00
H3650  H     0.07178   0.49437   0.34799   0.00000  Uiso   1.00
H3651  H     0.08513   0.43240   0.42504   0.00000  Uiso   1.00
H3652  H     0.08007   0.41661   0.41498   0.00000  Uiso   1.00
H3653  H     0.05124   0.44372   0.42546   0.00000  Uiso   1.00
H3654  H     0.16972   0.46551   0.37345   0.00000  Uiso   1.00
H3655  H     0.16650   0.47782   0.34230   0.00000  Uiso   1.00
H3656  H     0.19831   0.45661   0.34805   0.00000  Uiso   1.00
H3657  H     0.19234   0.38262   0.37808   0.00000  Uiso   1.00
H3658  H     0.21503   0.39791   0.36627   0.00000  Uiso   1.00
H3659  H     0.19172   0.39659   0.39779   0.00000  Uiso   1.00
Si3660 Si    0.31640   0.51919   0.83654   0.00000  Uiso   1.00
Si3661 Si    0.24617   0.58837   0.82228   0.00000  Uiso   1.00
Si3662 Si    0.27124   0.55839   0.86679   0.00000  Uiso   1.00
Si3663 Si    0.29085   0.54865   0.79248   0.00000  Uiso   1.00
O3664  O     0.27226   0.57637   0.79944   0.00000  Uiso   1.00
O3665  O     0.25023   0.57015   0.85142   0.00000  Uiso   1.00
O3666  O     0.30091   0.54275   0.84978   0.00000  Uiso   1.00
O3667  O     0.30126   0.52531   0.81747   0.00000  Uiso   1.00
C3668  C     0.34624   0.52578   0.82514   0.00000  Uiso   1.00
C3669  C     0.32090   0.48818   0.83768   0.00000  Uiso   1.00
C3670  C     0.24223   0.62132   0.81487   0.00000  Uiso   1.00
C3671  C     0.21675   0.58035   0.83713   0.00000  Uiso   1.00
C3672  C     0.26664   0.53778   0.89956   0.00000  Uiso   1.00
C3673  C     0.28421   0.58248   0.86062   0.00000  Uiso   1.00
C3674  C     0.25975   0.55424   0.79115   0.00000  Uiso   1.00
C3675  C     0.31281   0.55854   0.76071   0.00000  Uiso   1.00
H3676  H     0.35544   0.51071   0.84025   0.00000  Uiso   1.00
H3677  H     0.35805   0.52240   0.80651   0.00000  Uiso   1.00
H3678  H     0.34082   0.54569   0.82331   0.00000  Uiso   1.00
H3679  H     0.33046   0.47150   0.85249   0.00000  Uiso   1.00
H3680  H     0.33436   0.48509   0.81819   0.00000  Uiso   1.00
H3681  H     0.30228   0.48570   0.84274   0.00000  Uiso   1.00
H3682  H     0.23767   0.62430   0.83189   0.00000  Uiso   1.00
H3683  H     0.22779   0.63638   0.80509   0.00000  Uiso   1.00
H3684  H     0.26111   0.62317   0.80156   0.00000  Uiso   1.00
H3685  H     0.21881   0.56069   0.84011   0.00000  Uiso   1.00
H3686  H     0.20573   0.58426   0.85572   0.00000  Uiso   1.00
H3687  H     0.20686   0.59685   0.82259   0.00000  Uiso   1.00
H3688  H     0.25895   0.52308   0.90347   0.00000  Uiso   1.00
H3689  H     0.28574   0.52896   0.90217   0.00000  Uiso   1.00
H3690  H     0.25033   0.54904   0.91408   0.00000  Uiso   1.00
H3691  H     0.30095   0.57160   0.86718   0.00000  Uiso   1.00
H3692  H     0.26930   0.59496   0.87278   0.00000  Uiso   1.00
H3693  H     0.29153   0.59331   0.83849   0.00000  Uiso   1.00
H3694  H     0.26371   0.54419   0.77928   0.00000  Uiso   1.00
H3695  H     0.25092   0.57418   0.78209   0.00000  Uiso   1.00
H3696  H     0.24805   0.54462   0.81129   0.00000  Uiso   1.00
H3697  H     0.31836   0.54625   0.75007   0.00000  Uiso   1.00
H3698  H     0.30279   0.57914   0.75106   0.00000  Uiso   1.00
H3699  H     0.32961   0.55583   0.76470   0.00000  Uiso   1.00
Si3700 Si    0.23133   0.85807   0.49976   0.00000  Uiso   1.00
Si3701 Si    0.20777   0.82169   0.58665   0.00000  Uiso   1.00
Si3702 Si    0.17762   0.86231   0.54630   0.00000  Uiso   1.00
Si3703 Si    0.26152   0.81813   0.54014   0.00000  Uiso   1.00
O3704  O     0.23620   0.80974   0.56548   0.00000  Uiso   1.00
O3705  O     0.18964   0.84965   0.57027   0.00000  Uiso   1.00
O3706  O     0.20184   0.85547   0.51976   0.00000  Uiso   1.00
O3707  O     0.25053   0.84535   0.51738   0.00000  Uiso   1.00
C3708  C     0.23048   0.84800   0.47789   0.00000  Uiso   1.00
C3709  C     0.23879   0.88734   0.48540   0.00000  Uiso   1.00
C3710  C     0.18684   0.80215   0.61140   0.00000  Uiso   1.00
C3711  C     0.20474   0.84380   0.59898   0.00000  Uiso   1.00
C3712  C     0.15997   0.89749   0.53872   0.00000  Uiso   1.00
C3713  C     0.16540   0.84276   0.54519   0.00000  Uiso   1.00
C3714  C     0.28095   0.78769   0.53554   0.00000  Uiso   1.00
C3715  C     0.26069   0.82073   0.56764   0.00000  Uiso   1.00
H3716  H     0.24947   0.84589   0.46090   0.00000  Uiso   1.00
H3717  H     0.21462   0.86117   0.46975   0.00000  Uiso   1.00
H3718  H     0.22710   0.82907   0.49035   0.00000  Uiso   1.00
H3719  H     0.23802   0.89119   0.50151   0.00000  Uiso   1.00
H3720  H     0.25780   0.88556   0.46988   0.00000  Uiso   1.00
H3721  H     0.22347   0.90116   0.47696   0.00000  Uiso   1.00
H3722  H     0.19896   0.78403   0.62239   0.00000  Uiso   1.00
H3723  H     0.16977   0.81375   0.62329   0.00000  Uiso   1.00
H3724  H     0.18048   0.79813   0.60148   0.00000  Uiso   1.00
H3725  H     0.21537   0.85646   0.58094   0.00000  Uiso   1.00
H3726  H     0.21362   0.83232   0.61352   0.00000  Uiso   1.00
H3727  H     0.18477   0.85637   0.60729   0.00000  Uiso   1.00
H3728  H     0.17419   0.90742   0.53050   0.00000  Uiso   1.00
H3729  H     0.15141   0.90351   0.52418   0.00000  Uiso   1.00
H3730  H     0.14278   0.90174   0.55761   0.00000  Uiso   1.00
H3731  H     0.14436   0.84795   0.55710   0.00000  Uiso   1.00
H3732  H     0.16801   0.84779   0.52543   0.00000  Uiso   1.00
H3733  H     0.17604   0.82195   0.55273   0.00000  Uiso   1.00
H3734  H     0.26671   0.77757   0.54601   0.00000  Uiso   1.00
H3735  H     0.29512   0.77714   0.54593   0.00000  Uiso   1.00
H3736  H     0.28992   0.79272   0.51350   0.00000  Uiso   1.00
H3737  H     0.24790   0.83921   0.57168   0.00000  Uiso   1.00
H3738  H     0.28050   0.81845   0.56490   0.00000  Uiso   1.00
H3739  H     0.25530   0.80568   0.58680   0.00000  Uiso   1.00
Si3740 Si    0.41845   0.69917   0.15654   0.00000  Uiso   1.00
Si3741 Si    0.43465   0.69917   0.21833   0.00000  Uiso   1.00
Si3742 Si    0.43996   0.65554   0.20273   0.00000  Uiso   1.00
Si3743 Si    0.41232   0.74281   0.17268   0.00000  Uiso   1.00
O3744  O     0.43223   0.72381   0.19044   0.00000  Uiso   1.00
O3745  O     0.42959   0.67465   0.21973   0.00000  Uiso   1.00
O3746  O     0.43879   0.67419   0.17254   0.00000  Uiso   1.00
O3747  O     0.40473   0.72405   0.16759   0.00000  Uiso   1.00
C3748  C     0.44541   0.68418   0.13280   0.00000  Uiso   1.00
C3749  C     0.38306   0.71082   0.15956   0.00000  Uiso   1.00
C3750  C     0.46190   0.69425   0.22400   0.00000  Uiso   1.00
C3751  C     0.40635   0.70398   0.24678   0.00000  Uiso   1.00
C3752  C     0.47376   0.64414   0.18545   0.00000  Uiso   1.00
C3753  C     0.42461   0.63131   0.21969   0.00000  Uiso   1.00
C3754  C     0.42715   0.76416   0.14347   0.00000  Uiso   1.00
C3755  C     0.38399   0.75540   0.19743   0.00000  Uiso   1.00
H3756  H     0.46430   0.68433   0.13054   0.00000  Uiso   1.00
H3757  H     0.44535   0.66585   0.13604   0.00000  Uiso   1.00
H3758  H     0.44204   0.69700   0.11316   0.00000  Uiso   1.00
H3759  H     0.38028   0.69694   0.15457   0.00000  Uiso   1.00
H3760  H     0.37743   0.73106   0.14629   0.00000  Uiso   1.00
H3761  H     0.37198   0.70939   0.17995   0.00000  Uiso   1.00
H3762  H     0.46466   0.67604   0.23887   0.00000  Uiso   1.00
H3763  H     0.45695   0.71031   0.23031   0.00000  Uiso   1.00
H3764  H     0.47935   0.69514   0.20648   0.00000  Uiso   1.00
H3765  H     0.40079   0.72368   0.24776   0.00000  Uiso   1.00
H3766  H     0.39054   0.70280   0.24503   0.00000  Uiso   1.00
H3767  H     0.41070   0.68902   0.26438   0.00000  Uiso   1.00
H3768  H     0.47658   0.63627   0.17229   0.00000  Uiso   1.00
H3769  H     0.48192   0.62723   0.20123   0.00000  Uiso   1.00
H3770  H     0.48145   0.66019   0.17574   0.00000  Uiso   1.00
H3771  H     0.42477   0.62721   0.20521   0.00000  Uiso   1.00
H3772  H     0.40425   0.63796   0.23205   0.00000  Uiso   1.00
H3773  H     0.43644   0.61314   0.23051   0.00000  Uiso   1.00
H3774  H     0.41208   0.77627   0.13442   0.00000  Uiso   1.00
H3775  H     0.44536   0.75353   0.13064   0.00000  Uiso   1.00
H3776  H     0.43252   0.77470   0.14890   0.00000  Uiso   1.00
H3777  H     0.37515   0.74043   0.21277   0.00000  Uiso   1.00
H3778  H     0.36976   0.77269   0.18923   0.00000  Uiso   1.00
H3779  H     0.39012   0.76185   0.20558   0.00000  Uiso   1.00
Si3780 Si    0.73273   0.36015   0.76946   0.00000  Uiso   1.00
Si3781 Si    0.80271   0.32871   0.79219   0.00000  Uiso   1.00
Si3782 Si    0.75449   0.31111   0.81333   0.00000  Uiso   1.00
Si3783 Si    0.78050   0.37821   0.74886   0.00000  Uiso   1.00
O3784  O     0.79992   0.34952   0.76293   0.00000  Uiso   1.00
O3785  O     0.77504   0.32181   0.81181   0.00000  Uiso   1.00
O3786  O     0.74552   0.32915   0.78673   0.00000  Uiso   1.00
O3787  O     0.74996   0.37768   0.76241   0.00000  Uiso   1.00
C3788  C     0.70537   0.38555   0.78213   0.00000  Uiso   1.00
C3789  C     0.72749   0.34275   0.75749   0.00000  Uiso   1.00
C3790  C     0.79292   0.34002   0.81832   0.00000  Uiso   1.00
C3791  C     0.82951   0.29916   0.79653   0.00000  Uiso   1.00
C3792  C     0.77107   0.28611   0.79827   0.00000  Uiso   1.00
C3793  C     0.72614   0.30686   0.84321   0.00000  Uiso   1.00
C3794  C     0.79649   0.38648   0.71356   0.00000  Uiso   1.00
C3795  C     0.78977   0.38969   0.76352   0.00000  Uiso   1.00
H3796  H     0.69826   0.40249   0.76531   0.00000  Uiso   1.00
H3797  H     0.69057   0.37684   0.79618   0.00000  Uiso   1.00
H3798  H     0.71059   0.39185   0.79184   0.00000  Uiso   1.00
H3799  H     0.74596   0.33032   0.74765   0.00000  Uiso   1.00
H3800  H     0.71291   0.33342   0.77182   0.00000  Uiso   1.00
H3801  H     0.71946   0.35915   0.74110   0.00000  Uiso   1.00
H3802  H     0.79492   0.32118   0.83456   0.00000  Uiso   1.00
H3803  H     0.77409   0.35365   0.82230   0.00000  Uiso   1.00
H3804  H     0.80671   0.34880   0.81425   0.00000  Uiso   1.00
H3805  H     0.84032   0.29517   0.77813   0.00000  Uiso   1.00
H3806  H     0.84092   0.30108   0.80369   0.00000  Uiso   1.00
H3807  H     0.82310   0.28234   0.81189   0.00000  Uiso   1.00
H3808  H     0.75686   0.28310   0.79587   0.00000  Uiso   1.00
H3809  H     0.78288   0.26818   0.80938   0.00000  Uiso   1.00
H3810  H     0.78403   0.29520   0.77815   0.00000  Uiso   1.00
H3811  H     0.70707   0.31403   0.84111   0.00000  Uiso   1.00
H3812  H     0.73271   0.28550   0.85401   0.00000  Uiso   1.00
H3813  H     0.72378   0.31530   0.85606   0.00000  Uiso   1.00
H3814  H     0.81863   0.37920   0.70834   0.00000  Uiso   1.00
H3815  H     0.79104   0.40737   0.70205   0.00000  Uiso   1.00
H3816  H     0.79145   0.37595   0.70729   0.00000  Uiso   1.00
H3817  H     0.81074   0.37736   0.76287   0.00000  Uiso   1.00
H3818  H     0.77495   0.38854   0.78279   0.00000  Uiso   1.00
H3819  H     0.78947   0.41052   0.75022   0.00000  Uiso   1.00
Si3820 Si    0.54214   0.35539   0.80661   0.00000  Uiso   1.00
Si3821 Si    0.60925   0.31133   0.83660   0.00000  Uiso   1.00
Si3822 Si    0.59783   0.35915   0.78679   0.00000  Uiso   1.00
Si3823 Si    0.55391   0.30702   0.85598   0.00000  Uiso   1.00
O3824  O     0.57842   0.31207   0.85461   0.00000  Uiso   1.00
O3825  O     0.61119   0.32932   0.80546   0.00000  Uiso   1.00
O3826  O     0.56538   0.36667   0.79831   0.00000  Uiso   1.00
O3827  O     0.54818   0.32484   0.82760   0.00000  Uiso   1.00
C3828  C     0.53163   0.33910   0.79860   0.00000  Uiso   1.00
C3829  C     0.52450   0.38951   0.80283   0.00000  Uiso   1.00
C3830  C     0.63065   0.28449   0.82312   0.00000  Uiso   1.00
C3831  C     0.62763   0.32219   0.84118   0.00000  Uiso   1.00
C3832  C     0.59037   0.38595   0.79531   0.00000  Uiso   1.00
C3833  C     0.61007   0.36564   0.75079   0.00000  Uiso   1.00
C3834  C     0.52453   0.30734   0.88478   0.00000  Uiso   1.00
C3835  C     0.57819   0.27509   0.85717   0.00000  Uiso   1.00
H3836  H     0.54707   0.32112   0.79651   0.00000  Uiso   1.00
H3837  H     0.52731   0.35120   0.77977   0.00000  Uiso   1.00
H3838  H     0.51372   0.33697   0.81633   0.00000  Uiso   1.00
H3839  H     0.50436   0.39288   0.80836   0.00000  Uiso   1.00
H3840  H     0.52624   0.39581   0.81518   0.00000  Uiso   1.00
H3841  H     0.53112   0.40221   0.78180   0.00000  Uiso   1.00
H3842  H     0.64743   0.29114   0.80626   0.00000  Uiso   1.00
H3843  H     0.63784   0.26721   0.83853   0.00000  Uiso   1.00
H3844  H     0.62179   0.27837   0.81641   0.00000  Uiso   1.00
H3845  H     0.63600   0.30837   0.85699   0.00000  Uiso   1.00
H3846  H     0.64222   0.32702   0.82222   0.00000  Uiso   1.00
H3847  H     0.61440   0.34092   0.84442   0.00000  Uiso   1.00
H3848  H     0.57361   0.40145   0.79026   0.00000  Uiso   1.00
H3849  H     0.58640   0.38040   0.81598   0.00000  Uiso   1.00
H3850  H     0.60865   0.39169   0.78268   0.00000  Uiso   1.00
H3851  H     0.60788   0.35034   0.74861   0.00000  Uiso   1.00
H3852  H     0.63101   0.36542   0.74069   0.00000  Uiso   1.00
H3853  H     0.59677   0.38477   0.74241   0.00000  Uiso   1.00
H3854  H     0.51181   0.29832   0.88660   0.00000  Uiso   1.00
H3855  H     0.51385   0.32781   0.88081   0.00000  Uiso   1.00
H3856  H     0.52920   0.29893   0.90318   0.00000  Uiso   1.00
H3857  H     0.58644   0.27757   0.83672   0.00000  Uiso   1.00
H3858  H     0.56819   0.26097   0.86777   0.00000  Uiso   1.00
H3859  H     0.59355   0.27060   0.86572   0.00000  Uiso   1.00
Si3860 Si    0.55223   0.68881   0.43948   0.00000  Uiso   1.00
Si3861 Si    0.58707   0.61201   0.42753   0.00000  Uiso   1.00
Si3862 Si    0.54041   0.63565   0.47129   0.00000  Uiso   1.00
Si3863 Si    0.59943   0.66488   0.39615   0.00000  Uiso   1.00
O3864  O     0.59033   0.64022   0.40405   0.00000  Uiso   1.00
O3865  O     0.56909   0.61690   0.45632   0.00000  Uiso   1.00
O3866  O     0.53703   0.66709   0.45353   0.00000  Uiso   1.00
O3867  O     0.58270   0.67710   0.42057   0.00000  Uiso   1.00
C3868  C     0.52053   0.71242   0.43287   0.00000  Uiso   1.00
C3869  C     0.56428   0.69851   0.45244   0.00000  Uiso   1.00
C3870  C     0.57663   0.59448   0.42126   0.00000  Uiso   1.00
C3871  C     0.61116   0.59126   0.44447   0.00000  Uiso   1.00
C3872  C     0.53410   0.63121   0.50407   0.00000  Uiso   1.00
C3873  C     0.51336   0.63832   0.46565   0.00000  Uiso   1.00
C3874  C     0.62757   0.63684   0.39937   0.00000  Uiso   1.00
C3875  C     0.60147   0.69179   0.36450   0.00000  Uiso   1.00
H3876  H     0.52488   0.73128   0.42116   0.00000  Uiso   1.00
H3877  H     0.51967   0.70736   0.41860   0.00000  Uiso   1.00
H3878  H     0.50370   0.71410   0.45088   0.00000  Uiso   1.00
H3879  H     0.57753   0.68180   0.46232   0.00000  Uiso   1.00
H3880  H     0.54569   0.70602   0.46672   0.00000  Uiso   1.00
H3881  H     0.57152   0.71375   0.43681   0.00000  Uiso   1.00
H3882  H     0.59351   0.58027   0.41190   0.00000  Uiso   1.00
H3883  H     0.56440   0.60938   0.40909   0.00000  Uiso   1.00
H3884  H     0.56542   0.58302   0.44092   0.00000  Uiso   1.00
H3885  H     0.63057   0.58111   0.43032   0.00000  Uiso   1.00
H3886  H     0.61429   0.60383   0.44977   0.00000  Uiso   1.00
H3887  H     0.60124   0.57818   0.46053   0.00000  Uiso   1.00
H3888  H     0.55377   0.62117   0.50744   0.00000  Uiso   1.00
H3889  H     0.52166   0.61816   0.51732   0.00000  Uiso   1.00
H3890  H     0.52466   0.64960   0.50728   0.00000  Uiso   1.00
H3891  H     0.51200   0.61851   0.47415   0.00000  Uiso   1.00
H3892  H     0.51571   0.64733   0.44429   0.00000  Uiso   1.00
H3893  H     0.49546   0.65293   0.47540   0.00000  Uiso   1.00
H3894  H     0.63238   0.62461   0.38997   0.00000  Uiso   1.00
H3895  H     0.64347   0.64489   0.39296   0.00000  Uiso   1.00
H3896  H     0.62238   0.62832   0.42001   0.00000  Uiso   1.00
H3897  H     0.58167   0.70835   0.36608   0.00000  Uiso   1.00
H3898  H     0.61540   0.69822   0.36366   0.00000  Uiso   1.00
H3899  H     0.60822   0.68371   0.34947   0.00000  Uiso   1.00
Si3900 Si    0.49648   0.30334   0.12105   0.00000  Uiso   1.00
Si3901 Si    0.43147   0.37271   0.14243   0.00000  Uiso   1.00
Si3902 Si    0.48166   0.36449   0.09306   0.00000  Uiso   1.00
Si3903 Si    0.44676   0.31158   0.17075   0.00000  Uiso   1.00
O3904  O     0.43048   0.34232   0.15619   0.00000  Uiso   1.00
O3905  O     0.46076   0.37303   0.11971   0.00000  Uiso   1.00
O3906  O     0.48716   0.33314   0.09991   0.00000  Uiso   1.00
O3907  O     0.47795   0.30363   0.15153   0.00000  Uiso   1.00
C3908  C     0.49826   0.29258   0.09803   0.00000  Uiso   1.00
C3909  C     0.52016   0.28377   0.13637   0.00000  Uiso   1.00
C3910  C     0.43863   0.38060   0.16110   0.00000  Uiso   1.00
C3911  C     0.40881   0.40033   0.12667   0.00000  Uiso   1.00
C3912  C     0.46800   0.37387   0.06884   0.00000  Uiso   1.00
C3913  C     0.51165   0.37100   0.07656   0.00000  Uiso   1.00
C3914  C     0.44336   0.32420   0.19270   0.00000  Uiso   1.00
C3915  C     0.42913   0.28912   0.18395   0.00000  Uiso   1.00
H3916  H     0.47942   0.30422   0.09505   0.00000  Uiso   1.00
H3917  H     0.51456   0.29745   0.07973   0.00000  Uiso   1.00
H3918  H     0.50036   0.27224   0.10663   0.00000  Uiso   1.00
H3919  H     0.52055   0.26250   0.14711   0.00000  Uiso   1.00
H3920  H     0.51909   0.29151   0.14906   0.00000  Uiso   1.00
H3921  H     0.53978   0.28296   0.11994   0.00000  Uiso   1.00
H3922  H     0.44276   0.39936   0.14947   0.00000  Uiso   1.00
H3923  H     0.42110   0.38343   0.17820   0.00000  Uiso   1.00
H3924  H     0.45599   0.36415   0.16607   0.00000  Uiso   1.00
H3925  H     0.41664   0.41563   0.11372   0.00000  Uiso   1.00
H3926  H     0.38929   0.41024   0.13820   0.00000  Uiso   1.00
H3927  H     0.40550   0.39382   0.11577   0.00000  Uiso   1.00
H3928  H     0.45444   0.36302   0.07806   0.00000  Uiso   1.00
H3929  H     0.45747   0.39460   0.06346   0.00000  Uiso   1.00
H3930  H     0.48577   0.36883   0.05186   0.00000  Uiso   1.00
H3931  H     0.51858   0.37271   0.08858   0.00000  Uiso   1.00
H3932  H     0.53004   0.35525   0.06841   0.00000  Uiso   1.00
H3933  H     0.50983   0.39030   0.06149   0.00000  Uiso   1.00
H3934  H     0.46073   0.33018   0.18391   0.00000  Uiso   1.00
H3935  H     0.42511   0.34158   0.19492   0.00000  Uiso   1.00
H3936  H     0.44161   0.30884   0.21250   0.00000  Uiso   1.00
H3937  H     0.41187   0.29396   0.20194   0.00000  Uiso   1.00
H3938  H     0.44146   0.26830   0.19112   0.00000  Uiso   1.00
H3939  H     0.42300   0.29051   0.16980   0.00000  Uiso   1.00
Si3940 Si    0.39436   0.07270   0.52500   0.00000  Uiso   1.00
Si3941 Si    0.46227   0.00838   0.49674   0.00000  Uiso   1.00
Si3942 Si    0.44383   0.07004   0.47394   0.00000  Uiso   1.00
Si3943 Si    0.41236   0.01106   0.54741   0.00000  Uiso   1.00
O3944  O     0.44356   0.00551   0.52790   0.00000  Uiso   1.00
O3945  O     0.45134   0.03902   0.47768   0.00000  Uiso   1.00
O3946  O     0.42299   0.07547   0.50214   0.00000  Uiso   1.00
O3947  O     0.39492   0.04221   0.53533   0.00000  Uiso   1.00
C3948  C     0.39732   0.08941   0.53991   0.00000  Uiso   1.00
C3949  C     0.36170   0.08202   0.52820   0.00000  Uiso   1.00
C3950  C     0.45694  -0.00090   0.47766   0.00000  Uiso   1.00
C3951  C     0.49700  -0.00104   0.48816   0.00000  Uiso   1.00
C3952  C     0.46452   0.08068   0.47565   0.00000  Uiso   1.00
C3953  C     0.43189   0.09359   0.44743   0.00000  Uiso   1.00
C3954  C     0.41291  -0.01022   0.53545   0.00000  Uiso   1.00
C3955  C     0.41064  -0.00263   0.58275   0.00000  Uiso   1.00
H3956  H     0.40786   0.07694   0.55456   0.00000  Uiso   1.00
H3957  H     0.40751   0.10191   0.52391   0.00000  Uiso   1.00
H3958  H     0.37627   0.09974   0.54965   0.00000  Uiso   1.00
H3959  H     0.35394   0.09944   0.51340   0.00000  Uiso   1.00
H3960  H     0.35009   0.08640   0.54642   0.00000  Uiso   1.00
H3961  H     0.35711   0.06589   0.53081   0.00000  Uiso   1.00
H3962  H     0.46610  -0.02254   0.48343   0.00000  Uiso   1.00
H3963  H     0.46628   0.00788   0.45727   0.00000  Uiso   1.00
H3964  H     0.43578   0.00478   0.48234   0.00000  Uiso   1.00
H3965  H     0.49964   0.00367   0.50107   0.00000  Uiso   1.00
H3966  H     0.50720   0.00650   0.46688   0.00000  Uiso   1.00
H3967  H     0.50396  -0.02159   0.49267   0.00000  Uiso   1.00
H3968  H     0.47709   0.08699   0.45478   0.00000  Uiso   1.00
H3969  H     0.45283   0.09891   0.48082   0.00000  Uiso   1.00
H3970  H     0.47621   0.06524   0.48838   0.00000  Uiso   1.00
H3971  H     0.41586   0.10789   0.45552   0.00000  Uiso   1.00
H3972  H     0.44798   0.10165   0.43155   0.00000  Uiso   1.00
H3973  H     0.42589   0.08561   0.43973   0.00000  Uiso   1.00
H3974  H     0.43252  -0.02531   0.53067   0.00000  Uiso   1.00
H3975  H     0.39802  -0.01878   0.54965   0.00000  Uiso   1.00
H3976  H     0.40778   0.00404   0.51824   0.00000  Uiso   1.00
H3977  H     0.40646   0.01342   0.58883   0.00000  Uiso   1.00
H3978  H     0.39344  -0.00892   0.59236   0.00000  Uiso   1.00
H3979  H     0.42842  -0.01916   0.58515   0.00000  Uiso   1.00
Si3980 Si    0.45645   0.60290   0.30040   0.00000  Uiso   1.00
Si3981 Si    0.47417   0.51643   0.33628   0.00000  Uiso   1.00
Si3982 Si    0.42986   0.56506   0.35339   0.00000  Uiso   1.00
Si3983 Si    0.50122   0.55424   0.28368   0.00000  Uiso   1.00
O3984  O     0.48543   0.53267   0.30443   0.00000  Uiso   1.00
O3985  O     0.45555   0.53758   0.35271   0.00000  Uiso   1.00
O3986  O     0.43481   0.58778   0.32377   0.00000  Uiso   1.00
O3987  O     0.48591   0.58060   0.29284   0.00000  Uiso   1.00
C3988  C     0.46921   0.61837   0.30677   0.00000  Uiso   1.00
C3989  C     0.43324   0.62193   0.28434   0.00000  Uiso   1.00
C3990  C     0.45779   0.49584   0.34287   0.00000  Uiso   1.00
C3991  C     0.49258   0.50105   0.35746   0.00000  Uiso   1.00
C3992  C     0.42494   0.57717   0.37678   0.00000  Uiso   1.00
C3993  C     0.40142   0.56808   0.34936   0.00000  Uiso   1.00
C3994  C     0.50572   0.55566   0.25156   0.00000  Uiso   1.00
C3995  C     0.52759   0.52955   0.29675   0.00000  Uiso   1.00
H3996  H     0.48472   0.62523   0.28792   0.00000  Uiso   1.00
H3997  H     0.48004   0.60341   0.32067   0.00000  Uiso   1.00
H3998  H     0.45393   0.63370   0.31544   0.00000  Uiso   1.00
H3999  H     0.44546   0.62838   0.26415   0.00000  Uiso   1.00
H4000  H     0.42393   0.60896   0.28730   0.00000  Uiso   1.00
H4001  H     0.41862   0.63652   0.29332   0.00000  Uiso   1.00
H4002  H     0.44365   0.49311   0.36296   0.00000  Uiso   1.00
H4003  H     0.47310   0.47812   0.34047   0.00000  Uiso   1.00
H4004  H     0.44564   0.50384   0.33102   0.00000  Uiso   1.00
H4005  H     0.50431   0.51346   0.34934   0.00000  Uiso   1.00
H4006  H     0.48039   0.49860   0.37859   0.00000  Uiso   1.00
H4007  H     0.50693   0.48239   0.35401   0.00000  Uiso   1.00
H4008  H     0.41244   0.56782   0.39699   0.00000  Uiso   1.00
H4009  H     0.41705   0.59916   0.36972   0.00000  Uiso   1.00
H4010  H     0.44322   0.57230   0.37820   0.00000  Uiso   1.00
H4011  H     0.38888   0.58919   0.34969   0.00000  Uiso   1.00
H4012  H     0.40622   0.56493   0.33135   0.00000  Uiso   1.00
H4013  H     0.39083   0.55496   0.36762   0.00000  Uiso   1.00
H4014  H     0.51122   0.53527   0.25142   0.00000  Uiso   1.00
H4015  H     0.52244   0.56206   0.23969   0.00000  Uiso   1.00
H4016  H     0.48801   0.56918   0.24503   0.00000  Uiso   1.00
H4017  H     0.54588   0.52506   0.27997   0.00000  Uiso   1.00
H4018  H     0.52660   0.54244   0.30418   0.00000  Uiso   1.00
H4019  H     0.52234   0.51251   0.31155   0.00000  Uiso   1.00
Si4020 Si    0.48083   0.83365   0.62214   0.00000  Uiso   1.00
Si4021 Si    0.49289   0.90735   0.60050   0.00000  Uiso   1.00
Si4022 Si    0.51770   0.84768   0.63007   0.00000  Uiso   1.00
Si4023 Si    0.45543   0.89342   0.59333   0.00000  Uiso   1.00
O4024  O     0.47919   0.90332   0.58633   0.00000  Uiso   1.00
O4025  O     0.50100   0.87962   0.62436   0.00000  Uiso   1.00
O4026  O     0.50778   0.83557   0.61947   0.00000  Uiso   1.00
O4027  O     0.45888   0.86364   0.61586   0.00000  Uiso   1.00
C4028  C     0.45134   0.82615   0.64619   0.00000  Uiso   1.00
C4029  C     0.50103   0.81192   0.60366   0.00000  Uiso   1.00
C4030  C     0.47163   0.92389   0.62467   0.00000  Uiso   1.00
C4031  C     0.52117   0.91809   0.57930   0.00000  Uiso   1.00
C4032  C     0.54748   0.83816   0.60695   0.00000  Uiso   1.00
C4033  C     0.52080   0.82981   0.66227   0.00000  Uiso   1.00
C4034  C     0.45483   0.90017   0.56226   0.00000  Uiso   1.00
C4035  C     0.43997   0.92075   0.60479   0.00000  Uiso   1.00
H4036  H     0.45865   0.80603   0.65860   0.00000  Uiso   1.00
H4037  H     0.43961   0.83846   0.65849   0.00000  Uiso   1.00
H4038  H     0.43923   0.82897   0.63562   0.00000  Uiso   1.00
H4039  H     0.48873   0.81194   0.59631   0.00000  Uiso   1.00
H4040  H     0.50867   0.79235   0.61489   0.00000  Uiso   1.00
H4041  H     0.51629   0.81979   0.58678   0.00000  Uiso   1.00
H4042  H     0.45869   0.91304   0.64157   0.00000  Uiso   1.00
H4043  H     0.45843   0.94340   0.61621   0.00000  Uiso   1.00
H4044  H     0.48626   0.92370   0.62962   0.00000  Uiso   1.00
H4045  H     0.53092   0.91692   0.59010   0.00000  Uiso   1.00
H4046  H     0.51510   0.93846   0.56663   0.00000  Uiso   1.00
H4047  H     0.53280   0.90511   0.56850   0.00000  Uiso   1.00
H4048  H     0.54710   0.85104   0.58713   0.00000  Uiso   1.00
H4049  H     0.56340   0.83824   0.61058   0.00000  Uiso   1.00
H4050  H     0.54989   0.81854   0.60953   0.00000  Uiso   1.00
H4051  H     0.49969   0.83423   0.67470   0.00000  Uiso   1.00
H4052  H     0.53040   0.80701   0.66568   0.00000  Uiso   1.00
H4053  H     0.53087   0.83711   0.66595   0.00000  Uiso   1.00
H4054  H     0.43353   0.90334   0.56792   0.00000  Uiso   1.00
H4055  H     0.45893   0.91762   0.54609   0.00000  Uiso   1.00
H4056  H     0.46658   0.88293   0.55646   0.00000  Uiso   1.00
H4057  H     0.44058   0.91390   0.62471   0.00000  Uiso   1.00
H4058  H     0.45074   0.93604   0.59103   0.00000  Uiso   1.00
H4059  H     0.41936   0.92752   0.60719   0.00000  Uiso   1.00
Si4060 Si    0.37593   0.44226   0.40742   0.00000  Uiso   1.00
Si4061 Si    0.41676   0.46245   0.43268   0.00000  Uiso   1.00
Si4062 Si    0.41234   0.41017   0.44207   0.00000  Uiso   1.00
Si4063 Si    0.37962   0.49464   0.39872   0.00000  Uiso   1.00
O4064  O     0.40632   0.48114   0.40699   0.00000  Uiso   1.00
O4065  O     0.40914   0.43518   0.44774   0.00000  Uiso   1.00
O4066  O     0.40179   0.42169   0.41732   0.00000  Uiso   1.00
O4067  O     0.36738   0.47153   0.40886   0.00000  Uiso   1.00
C4068  C     0.34152   0.44748   0.42164   0.00000  Uiso   1.00
C4069  C     0.39269   0.43154   0.37894   0.00000  Uiso   1.00
C4070  C     0.45085   0.44964   0.42757   0.00000  Uiso   1.00
C4071  C     0.39506   0.47167   0.46209   0.00000  Uiso   1.00
C4072  C     0.39836   0.38597   0.46973   0.00000  Uiso   1.00
C4073  C     0.44489   0.39575   0.42213   0.00000  Uiso   1.00
C4074  C     0.36640   0.51199   0.42137   0.00000  Uiso   1.00
C4075  C     0.38148   0.51579   0.36479   0.00000  Uiso   1.00
H4076  H     0.33369   0.46309   0.40722   0.00000  Uiso   1.00
H4077  H     0.34047   0.42837   0.42726   0.00000  Uiso   1.00
H4078  H     0.33152   0.45310   0.43956   0.00000  Uiso   1.00
H4079  H     0.41277   0.41961   0.37719   0.00000  Uiso   1.00
H4080  H     0.39166   0.44954   0.36150   0.00000  Uiso   1.00
H4081  H     0.38239   0.41980   0.38114   0.00000  Uiso   1.00
H4082  H     0.45621   0.46777   0.41792   0.00000  Uiso   1.00
H4083  H     0.45431   0.44079   0.44622   0.00000  Uiso   1.00
H4084  H     0.46187   0.43690   0.41539   0.00000  Uiso   1.00
H4085  H     0.40502   0.46072   0.47587   0.00000  Uiso   1.00
H4086  H     0.37710   0.46578   0.47097   0.00000  Uiso   1.00
H4087  H     0.39019   0.49305   0.45626   0.00000  Uiso   1.00
H4088  H     0.41238   0.37190   0.47881   0.00000  Uiso   1.00
H4089  H     0.38182   0.39588   0.48284   0.00000  Uiso   1.00
H4090  H     0.39119   0.37740   0.46359   0.00000  Uiso   1.00
H4091  H     0.44101   0.38195   0.41946   0.00000  Uiso   1.00
H4092  H     0.46102   0.38560   0.43034   0.00000  Uiso   1.00
H4093  H     0.44728   0.41346   0.40346   0.00000  Uiso   1.00
H4094  H     0.36310   0.49908   0.44158   0.00000  Uiso   1.00
H4095  H     0.37752   0.52357   0.41761   0.00000  Uiso   1.00
H4096  H     0.34712   0.52703   0.41954   0.00000  Uiso   1.00
H4097  H     0.36323   0.53279   0.36561   0.00000  Uiso   1.00
H4098  H     0.39904   0.52178   0.35341   0.00000  Uiso   1.00
H4099  H     0.38166   0.50377   0.35612   0.00000  Uiso   1.00
Si4100 Si    0.44478   0.15069   0.23938   0.00000  Uiso   1.00
Si4101 Si    0.49580   0.19748   0.17342   0.00000  Uiso   1.00
Si4102 Si    0.46558   0.19076   0.23333   0.00000  Uiso   1.00
Si4103 Si    0.47432   0.15807   0.17925   0.00000  Uiso   1.00
O4104  O     0.49499   0.17076   0.17438   0.00000  Uiso   1.00
O4105  O     0.47421   0.20426   0.20082   0.00000  Uiso   1.00
O4106  O     0.46112   0.16282   0.24249   0.00000  Uiso   1.00
O4107  O     0.45015   0.15918   0.20768   0.00000  Uiso   1.00
C4108  C     0.41480   0.15514   0.23836   0.00000  Uiso   1.00
C4109  C     0.45625   0.12352   0.26532   0.00000  Uiso   1.00
C4110  C     0.47697   0.22921   0.15485   0.00000  Uiso   1.00
C4111  C     0.52366   0.20077   0.17056   0.00000  Uiso   1.00
C4112  C     0.49440   0.17255   0.24413   0.00000  Uiso   1.00
C4113  C     0.43935   0.21188   0.25006   0.00000  Uiso   1.00
C4114  C     0.49188   0.12613   0.17520   0.00000  Uiso   1.00
C4115  C     0.46883   0.18829   0.15066   0.00000  Uiso   1.00
H4116  H     0.40781   0.17472   0.22441   0.00000  Uiso   1.00
H4117  H     0.41770   0.13687   0.23624   0.00000  Uiso   1.00
H4118  H     0.39963   0.15393   0.25925   0.00000  Uiso   1.00
H4119  H     0.47737   0.11939   0.25920   0.00000  Uiso   1.00
H4120  H     0.44470   0.12655   0.28424   0.00000  Uiso   1.00
H4121  H     0.45154   0.10803   0.26740   0.00000  Uiso   1.00
H4122  H     0.48369   0.22876   0.13493   0.00000  Uiso   1.00
H4123  H     0.48169   0.24414   0.15522   0.00000  Uiso   1.00
H4124  H     0.45604   0.23309   0.16504   0.00000  Uiso   1.00
H4125  H     0.53237   0.21275   0.15048   0.00000  Uiso   1.00
H4126  H     0.51788   0.21252   0.18221   0.00000  Uiso   1.00
H4127  H     0.53616   0.18155   0.17677   0.00000  Uiso   1.00
H4128  H     0.50691   0.18546   0.23257   0.00000  Uiso   1.00
H4129  H     0.48874   0.16656   0.26547   0.00000  Uiso   1.00
H4130  H     0.50515   0.15200   0.24273   0.00000  Uiso   1.00
H4131  H     0.43036   0.19872   0.26949   0.00000  Uiso   1.00
H4132  H     0.44485   0.22491   0.25204   0.00000  Uiso   1.00
H4133  H     0.42756   0.22353   0.23745   0.00000  Uiso   1.00
H4134  H     0.47926   0.11942   0.17531   0.00000  Uiso   1.00
H4135  H     0.49857   0.11257   0.19188   0.00000  Uiso   1.00
H4136  H     0.50911   0.12612   0.15734   0.00000  Uiso   1.00
H4137  H     0.46056   0.18709   0.13873   0.00000  Uiso   1.00
H4138  H     0.45675   0.20667   0.15461   0.00000  Uiso   1.00
H4139  H     0.48805   0.19088   0.13623   0.00000  Uiso   1.00
Si4140 Si    0.70666   0.75112   0.38937   0.00000  Uiso   1.00
Si4141 Si    0.69074   0.83448   0.33720   0.00000  Uiso   1.00
Si4142 Si    0.65658   0.79768   0.37703   0.00000  Uiso   1.00
Si4143 Si    0.74099   0.78770   0.34887   0.00000  Uiso   1.00
O4144  O     0.71649   0.81621   0.34756   0.00000  Uiso   1.00
O4145  O     0.67207   0.81657   0.34903   0.00000  Uiso   1.00
O4146  O     0.67751   0.77467   0.39313   0.00000  Uiso   1.00
O4147  O     0.72892   0.76353   0.36273   0.00000  Uiso   1.00
C4148  C     0.70500   0.74213   0.42104   0.00000  Uiso   1.00
C4149  C     0.72845   0.72510   0.37701   0.00000  Uiso   1.00
C4150  C     0.69020   0.83932   0.30673   0.00000  Uiso   1.00
C4151  C     0.67557   0.86517   0.34484   0.00000  Uiso   1.00
C4152  C     0.63545   0.81124   0.40290   0.00000  Uiso   1.00
C4153  C     0.63877   0.78546   0.37327   0.00000  Uiso   1.00
C4154  C     0.74771   0.80606   0.31387   0.00000  Uiso   1.00
C4155  C     0.76303   0.78209   0.36251   0.00000  Uiso   1.00
H4156  H     0.72482   0.73635   0.41991   0.00000  Uiso   1.00
H4157  H     0.69025   0.75790   0.42999   0.00000  Uiso   1.00
H4158  H     0.69605   0.72685   0.43340   0.00000  Uiso   1.00
H4159  H     0.72074   0.70860   0.39107   0.00000  Uiso   1.00
H4160  H     0.74865   0.71995   0.37499   0.00000  Uiso   1.00
H4161  H     0.72846   0.73099   0.35649   0.00000  Uiso   1.00
H4162  H     0.70195   0.85254   0.29210   0.00000  Uiso   1.00
H4163  H     0.66988   0.85120   0.30650   0.00000  Uiso   1.00
H4164  H     0.69836   0.82165   0.30352   0.00000  Uiso   1.00
H4165  H     0.66564   0.85952   0.36620   0.00000  Uiso   1.00
H4166  H     0.69026   0.87274   0.34022   0.00000  Uiso   1.00
H4167  H     0.66180   0.88058   0.33336   0.00000  Uiso   1.00
H4168  H     0.64465   0.82161   0.40358   0.00000  Uiso   1.00
H4169  H     0.61906   0.82785   0.39500   0.00000  Uiso   1.00
H4170  H     0.62907   0.79576   0.42242   0.00000  Uiso   1.00
H4171  H     0.61991   0.80045   0.37198   0.00000  Uiso   1.00
H4172  H     0.63557   0.76753   0.39052   0.00000  Uiso   1.00
H4173  H     0.65118   0.78044   0.35520   0.00000  Uiso   1.00
H4174  H     0.74661   0.82634   0.30886   0.00000  Uiso   1.00
H4175  H     0.73405   0.80661   0.30786   0.00000  Uiso   1.00
H4176  H     0.76699   0.79495   0.30387   0.00000  Uiso   1.00
H4177  H     0.76373   0.80220   0.35659   0.00000  Uiso   1.00
H4178  H     0.78170   0.77018   0.35144   0.00000  Uiso   1.00
H4179  H     0.75597   0.77446   0.38417   0.00000  Uiso   1.00
Si4180 Si    0.94565   0.91701   0.63475   0.00000  Uiso   1.00
Si4181 Si    0.94475   0.99260   0.62615   0.00000  Uiso   1.00
Si4182 Si    0.96813   0.93325   0.65757   0.00000  Uiso   1.00
Si4183 Si    0.92151   0.97642   0.60401   0.00000  Uiso   1.00
O4184  O     0.93983   0.98779   0.60524   0.00000  Uiso   1.00
O4185  O     0.94961   0.96478   0.65108   0.00000  Uiso   1.00
O4186  O     0.96686   0.92044   0.64056   0.00000  Uiso   1.00
O4187  O     0.92373   0.94627   0.62563   0.00000  Uiso   1.00
C4188  C     0.91758   0.90646   0.65519   0.00000  Uiso   1.00
C4189  C     0.97601   0.89304   0.62159   0.00000  Uiso   1.00
C4190  C     0.97016   1.00725   0.60844   0.00000  Uiso   1.00
C4191  C     0.91629   1.00514   0.65170   0.00000  Uiso   1.00
C4192  C     0.96441   0.91379   0.69088   0.00000  Uiso   1.00
C4193  C     1.00165   0.93098   0.63781   0.00000  Uiso   1.00
C4194  C     0.89867   1.00340   0.61596   0.00000  Uiso   1.00
C4195  C     0.92884   0.98170   0.57049   0.00000  Uiso   1.00
H4196  H     0.92452   0.88711   0.66876   0.00000  Uiso   1.00
H4197  H     0.90007   0.91966   0.66511   0.00000  Uiso   1.00
H4198  H     0.91333   0.90476   0.64149   0.00000  Uiso   1.00
H4199  H     0.99072   0.90264   0.60602   0.00000  Uiso   1.00
H4200  H     0.98361   0.87688   0.63837   0.00000  Uiso   1.00
H4201  H     0.97029   0.88578   0.61333   0.00000  Uiso   1.00
H4202  H     0.95908   1.02713   0.60961   0.00000  Uiso   1.00
H4203  H     0.97978   1.00785   0.58789   0.00000  Uiso   1.00
H4204  H     0.98374   0.99672   0.61925   0.00000  Uiso   1.00
H4205  H     0.92508   1.00200   0.66439   0.00000  Uiso   1.00
H4206  H     0.90098   0.99505   0.66197   0.00000  Uiso   1.00
H4207  H     0.90735   1.02657   0.64200   0.00000  Uiso   1.00
H4208  H     0.97167   0.92023   0.69899   0.00000  Uiso   1.00
H4209  H     0.97424   0.89223   0.69437   0.00000  Uiso   1.00
H4210  H     0.94356   0.91686   0.70029   0.00000  Uiso   1.00
H4211  H     1.01049   0.91763   0.62691   0.00000  Uiso   1.00
H4212  H     1.00471   0.94974   0.62426   0.00000  Uiso   1.00
H4213  H     1.01129   0.92440   0.65198   0.00000  Uiso   1.00
H4214  H     0.89608   0.99459   0.63674   0.00000  Uiso   1.00
H4215  H     0.90803   1.01795   0.60530   0.00000  Uiso   1.00
H4216  H     0.88048   1.01085   0.61263   0.00000  Uiso   1.00
H4217  H     0.94108   0.96219   0.56757   0.00000  Uiso   1.00
H4218  H     0.93950   0.99599   0.55546   0.00000  Uiso   1.00
H4219  H     0.91108   0.98789   0.56636   0.00000  Uiso   1.00
Si4220 Si    0.80535   0.35080   0.54960   0.00000  Uiso   1.00
Si4221 Si    0.84155   0.26631   0.59017   0.00000  Uiso   1.00
Si4222 Si    0.78762   0.31009   0.60526   0.00000  Uiso   1.00
Si4223 Si    0.85962   0.30725   0.53484   0.00000  Uiso   1.00
O4224  O     0.85048   0.28143   0.55784   0.00000  Uiso   1.00
O4225  O     0.81721   0.28784   0.60504   0.00000  Uiso   1.00
O4226  O     0.78903   0.33090   0.57491   0.00000  Uiso   1.00
O4227  O     0.83742   0.33426   0.54211   0.00000  Uiso   1.00
C4228  C     0.78574   0.36179   0.53071   0.00000  Uiso   1.00
C4229  C     0.81403   0.37541   0.54706   0.00000  Uiso   1.00
C4230  C     0.85635   0.26212   0.61124   0.00000  Uiso   1.00
C4231  C     0.83105   0.23870   0.60251   0.00000  Uiso   1.00
C4232  C     0.76924   0.29749   0.60226   0.00000  Uiso   1.00
C4233  C     0.76966   0.32562   0.62956   0.00000  Uiso   1.00
C4234  C     0.88484   0.28848   0.54919   0.00000  Uiso   1.00
C4235  C     0.86904   0.30987   0.50070   0.00000  Uiso   1.00
H4236  H     0.76612   0.37155   0.54077   0.00000  Uiso   1.00
H4237  H     0.79378   0.37095   0.51032   0.00000  Uiso   1.00
H4238  H     0.78612   0.34310   0.53297   0.00000  Uiso   1.00
H4239  H     0.79580   0.39036   0.55254   0.00000  Uiso   1.00
H4240  H     0.82915   0.38047   0.52911   0.00000  Uiso   1.00
H4241  H     0.82257   0.36458   0.56230   0.00000  Uiso   1.00
H4242  H     0.87712   0.24876   0.60740   0.00000  Uiso   1.00
H4243  H     0.85667   0.28139   0.60590   0.00000  Uiso   1.00
H4244  H     0.84473   0.25537   0.63292   0.00000  Uiso   1.00
H4245  H     0.82023   0.24435   0.58941   0.00000  Uiso   1.00
H4246  H     0.81699   0.23571   0.62305   0.00000  Uiso   1.00
H4247  H     0.84741   0.22038   0.60091   0.00000  Uiso   1.00
H4248  H     0.76381   0.28214   0.62027   0.00000  Uiso   1.00
H4249  H     0.75170   0.31370   0.59863   0.00000  Uiso   1.00
H4250  H     0.78124   0.29002   0.58553   0.00000  Uiso   1.00
H4251  H     0.75608   0.34545   0.62498   0.00000  Uiso   1.00
H4252  H     0.76092   0.31251   0.64798   0.00000  Uiso   1.00
H4253  H     0.78533   0.32661   0.63173   0.00000  Uiso   1.00
H4254  H     0.87751   0.29102   0.56764   0.00000  Uiso   1.00
H4255  H     0.89086   0.26707   0.55289   0.00000  Uiso   1.00
H4256  H     0.90257   0.29413   0.53638   0.00000  Uiso   1.00
H4257  H     0.87805   0.32470   0.49015   0.00000  Uiso   1.00
H4258  H     0.85275   0.31601   0.49405   0.00000  Uiso   1.00
H4259  H     0.88435   0.29122   0.49791   0.00000  Uiso   1.00
Si4260 Si    0.81426   0.96162   0.53971   0.00000  Uiso   1.00
Si4261 Si    0.85541   0.87876   0.57965   0.00000  Uiso   1.00
Si4262 Si    0.82734   0.90684   0.53779   0.00000  Uiso   1.00
Si4263 Si    0.84155   0.93349   0.58220   0.00000  Uiso   1.00
O4264  O     0.85887   0.90503   0.57659   0.00000  Uiso   1.00
O4265  O     0.83376   0.88835   0.56581   0.00000  Uiso   1.00
O4266  O     0.82749   0.93680   0.52872   0.00000  Uiso   1.00
O4267  O     0.81840   0.95054   0.56827   0.00000  Uiso   1.00
C4268  C     0.82672   0.97647   0.50514   0.00000  Uiso   1.00
C4269  C     0.78091   0.97661   0.55813   0.00000  Uiso   1.00
C4270  C     0.88316   0.85235   0.56907   0.00000  Uiso   1.00
C4271  C     0.83001   0.86690   0.60943   0.00000  Uiso   1.00
C4272  C     0.85300   0.90623   0.50744   0.00000  Uiso   1.00
C4273  C     0.79744   0.90833   0.53905   0.00000  Uiso   1.00
C4274  C     0.82960   0.91429   0.61528   0.00000  Uiso   1.00
C4275  C     0.86271   0.94900   0.57597   0.00000  Uiso   1.00
H4276  H     0.84864   0.96771   0.49654   0.00000  Uiso   1.00
H4277  H     0.82273   0.99699   0.50179   0.00000  Uiso   1.00
H4278  H     0.81637   0.97736   0.49481   0.00000  Uiso   1.00
H4279  H     0.76685   0.98384   0.54886   0.00000  Uiso   1.00
H4280  H     0.78053   0.99220   0.56119   0.00000  Uiso   1.00
H4281  H     0.77733   0.96217   0.57665   0.00000  Uiso   1.00
H4282  H     0.89357   0.86085   0.54810   0.00000  Uiso   1.00
H4283  H     0.87764   0.83659   0.57076   0.00000  Uiso   1.00
H4284  H     0.89852   0.84322   0.57778   0.00000  Uiso   1.00
H4285  H     0.81344   0.88351   0.61358   0.00000  Uiso   1.00
H4286  H     0.83799   0.85476   0.62644   0.00000  Uiso   1.00
H4287  H     0.82567   0.85260   0.60701   0.00000  Uiso   1.00
H4288  H     0.85958   0.88774   0.50535   0.00000  Uiso   1.00
H4289  H     0.84555   0.92322   0.49284   0.00000  Uiso   1.00
H4290  H     0.86939   0.90708   0.50884   0.00000  Uiso   1.00
H4291  H     0.79012   0.92744   0.52455   0.00000  Uiso   1.00
H4292  H     0.78280   0.90706   0.55913   0.00000  Uiso   1.00
H4293  H     0.80127   0.89071   0.53474   0.00000  Uiso   1.00
H4294  H     0.81419   0.90936   0.61738   0.00000  Uiso   1.00
H4295  H     0.84471   0.89736   0.62163   0.00000  Uiso   1.00
H4296  H     0.82291   0.92723   0.62625   0.00000  Uiso   1.00
H4297  H     0.88044   0.93305   0.58111   0.00000  Uiso   1.00
H4298  H     0.85208   0.96166   0.58787   0.00000  Uiso   1.00
H4299  H     0.86739   0.96114   0.55544   0.00000  Uiso   1.00
Si4300 Si    0.42181   0.56931   0.07231   0.00000  Uiso   1.00
Si4301 Si    0.33904   0.57667   0.09575   0.00000  Uiso   1.00
Si4302 Si    0.38996   0.56782   0.04711   0.00000  Uiso   1.00
Si4303 Si    0.37071   0.57902   0.12052   0.00000  Uiso   1.00
O4304  O     0.35372   0.56873   0.11606   0.00000  Uiso   1.00
O4305  O     0.36005   0.58188   0.06517   0.00000  Uiso   1.00
O4306  O     0.41153   0.55820   0.06104   0.00000  Uiso   1.00
O4307  O     0.39621   0.58403   0.09342   0.00000  Uiso   1.00
C4308  C     0.44644   0.53855   0.07430   0.00000  Uiso   1.00
C4309  C     0.43226   0.59695   0.06017   0.00000  Uiso   1.00
C4310  C     0.32204   0.61129   0.08291   0.00000  Uiso   1.00
C4311  C     0.32107   0.55610   0.10382   0.00000  Uiso   1.00
C4312  C     0.40500   0.58339   0.01203   0.00000  Uiso   1.00
C4313  C     0.39758   0.53313   0.05802   0.00000  Uiso   1.00
C4314  C     0.37818   0.55613   0.15132   0.00000  Uiso   1.00
C4315  C     0.33693   0.60327   0.12472   0.00000  Uiso   1.00
H4316  H     0.46029   0.54179   0.05416   0.00000  Uiso   1.00
H4317  H     0.44086   0.52146   0.08069   0.00000  Uiso   1.00
H4318  H     0.45558   0.53265   0.08765   0.00000  Uiso   1.00
H4319  H     0.41564   0.61470   0.06098   0.00000  Uiso   1.00
H4320  H     0.44456   0.59840   0.03976   0.00000  Uiso   1.00
H4321  H     0.44443   0.59301   0.07055   0.00000  Uiso   1.00
H4322  H     0.30493   0.61522   0.10006   0.00000  Uiso   1.00
H4323  H     0.31615   0.61303   0.06820   0.00000  Uiso   1.00
H4324  H     0.33379   0.62261   0.07562   0.00000  Uiso   1.00
H4325  H     0.32470   0.55469   0.08498   0.00000  Uiso   1.00
H4326  H     0.29966   0.56255   0.11337   0.00000  Uiso   1.00
H4327  H     0.32805   0.53715   0.11789   0.00000  Uiso   1.00
H4328  H     0.39524   0.58494   0.00084   0.00000  Uiso   1.00
H4329  H     0.40486   0.60344   0.00756   0.00000  Uiso   1.00
H4330  H     0.42522   0.57103   0.00661   0.00000  Uiso   1.00
H4331  H     0.38725   0.53037   0.04993   0.00000  Uiso   1.00
H4332  H     0.41830   0.52183   0.04841   0.00000  Uiso   1.00
H4333  H     0.39259   0.52516   0.07874   0.00000  Uiso   1.00
H4334  H     0.37236   0.56639   0.16487   0.00000  Uiso   1.00
H4335  H     0.36869   0.54071   0.16087   0.00000  Uiso   1.00
H4336  H     0.39901   0.54476   0.14844   0.00000  Uiso   1.00
H4337  H     0.33168   0.61204   0.13871   0.00000  Uiso   1.00
H4338  H     0.32410   0.59221   0.13275   0.00000  Uiso   1.00
H4339  H     0.33737   0.61737   0.10480   0.00000  Uiso   1.00
Si4340 Si    0.76917   0.57678   0.81310   0.00000  Uiso   1.00
Si4341 Si    0.80685   0.54329   0.87268   0.00000  Uiso   1.00
Si4342 Si    0.76858   0.52970   0.86631   0.00000  Uiso   1.00
Si4343 Si    0.80673   0.59090   0.81992   0.00000  Uiso   1.00
O4344  O     0.81711   0.56216   0.84175   0.00000  Uiso   1.00
O4345  O     0.77996   0.53925   0.87802   0.00000  Uiso   1.00
O4346  O     0.77410   0.54634   0.83436   0.00000  Uiso   1.00
O4347  O     0.78014   0.59294   0.81787   0.00000  Uiso   1.00
C4348  C     0.74162   0.60633   0.81072   0.00000  Uiso   1.00
C4349  C     0.78253   0.56233   0.78881   0.00000  Uiso   1.00
C4350  C     0.83018   0.51331   0.88484   0.00000  Uiso   1.00
C4351  C     0.78858   0.55757   0.89852   0.00000  Uiso   1.00
C4352  C     0.73616   0.52689   0.88389   0.00000  Uiso   1.00
C4353  C     0.79313   0.50272   0.85344   0.00000  Uiso   1.00
C4354  C     0.79636   0.60757   0.84146   0.00000  Uiso   1.00
C4355  C     0.82797   0.60499   0.78796   0.00000  Uiso   1.00
H4356  H     0.72443   0.60243   0.81517   0.00000  Uiso   1.00
H4357  H     0.74814   0.62025   0.79219   0.00000  Uiso   1.00
H4358  H     0.73503   0.61534   0.82516   0.00000  Uiso   1.00
H4359  H     0.79177   0.57713   0.76971   0.00000  Uiso   1.00
H4360  H     0.79748   0.54325   0.79375   0.00000  Uiso   1.00
H4361  H     0.76747   0.55995   0.78741   0.00000  Uiso   1.00
H4362  H     0.84499   0.52014   0.88194   0.00000  Uiso   1.00
H4363  H     0.81826   0.50673   0.90490   0.00000  Uiso   1.00
H4364  H     0.83774   0.49996   0.87473   0.00000  Uiso   1.00
H4365  H     0.77907   0.54505   0.91756   0.00000  Uiso   1.00
H4366  H     0.77256   0.57677   0.89390   0.00000  Uiso   1.00
H4367  H     0.80180   0.56054   0.90229   0.00000  Uiso   1.00
H4368  H     0.73459   0.50784   0.90002   0.00000  Uiso   1.00
H4369  H     0.72597   0.54331   0.89170   0.00000  Uiso   1.00
H4370  H     0.72776   0.53126   0.87007   0.00000  Uiso   1.00
H4371  H     0.80026   0.51079   0.83241   0.00000  Uiso   1.00
H4372  H     0.80927   0.49448   0.86216   0.00000  Uiso   1.00
H4373  H     0.78535   0.48760   0.86013   0.00000  Uiso   1.00
H4374  H     0.77704   0.60578   0.85434   0.00000  Uiso   1.00
H4375  H     0.80844   0.59813   0.85457   0.00000  Uiso   1.00
H4376  H     0.79262   0.62824   0.83056   0.00000  Uiso   1.00
H4377  H     0.81689   0.62613   0.78634   0.00000  Uiso   1.00
H4378  H     0.84803   0.59813   0.78776   0.00000  Uiso   1.00
H4379  H     0.82568   0.60069   0.77441   0.00000  Uiso   1.00
Si4380 Si    0.31521   0.61062   0.33540   0.00000  Uiso   1.00
Si4381 Si    0.29817   0.69180   0.27863   0.00000  Uiso   1.00
Si4382 Si    0.33932   0.65548   0.30827   0.00000  Uiso   1.00
Si4383 Si    0.27351   0.64726   0.30642   0.00000  Uiso   1.00
O4384  O     0.28920   0.66844   0.28311   0.00000  Uiso   1.00
O4385  O     0.31415   0.68020   0.29905   0.00000  Uiso   1.00
O4386  O     0.33628   0.62714   0.31628   0.00000  Uiso   1.00
O4387  O     0.28658   0.62940   0.33030   0.00000  Uiso   1.00
C4388  C     0.34290   0.58521   0.32326   0.00000  Uiso   1.00
C4389  C     0.29495   0.60212   0.36881   0.00000  Uiso   1.00
C4390  C     0.31677   0.70783   0.24460   0.00000  Uiso   1.00
C4391  C     0.27808   0.71363   0.29742   0.00000  Uiso   1.00
C4392  C     0.34476   0.65884   0.33143   0.00000  Uiso   1.00
C4393  C     0.36982   0.64757   0.28338   0.00000  Uiso   1.00
C4394  C     0.24823   0.67975   0.30613   0.00000  Uiso   1.00
C4395  C     0.27140   0.63224   0.29122   0.00000  Uiso   1.00
H4396  H     0.33802   0.56697   0.33472   0.00000  Uiso   1.00
H4397  H     0.35930   0.58333   0.32710   0.00000  Uiso   1.00
H4398  H     0.34753   0.58964   0.30161   0.00000  Uiso   1.00
H4399  H     0.30901   0.59077   0.37908   0.00000  Uiso   1.00
H4400  H     0.28425   0.59086   0.37111   0.00000  Uiso   1.00
H4401  H     0.28116   0.61875   0.37520   0.00000  Uiso   1.00
H4402  H     0.33598   0.69405   0.23628   0.00000  Uiso   1.00
H4403  H     0.30286   0.71834   0.23402   0.00000  Uiso   1.00
H4404  H     0.32036   0.72392   0.24483   0.00000  Uiso   1.00
H4405  H     0.26384   0.72905   0.28668   0.00000  Uiso   1.00
H4406  H     0.26878   0.70355   0.31804   0.00000  Uiso   1.00
H4407  H     0.28965   0.72353   0.29490   0.00000  Uiso   1.00
H4408  H     0.35437   0.64088   0.34380   0.00000  Uiso   1.00
H4409  H     0.35651   0.67171   0.31845   0.00000  Uiso   1.00
H4410  H     0.32581   0.67057   0.34314   0.00000  Uiso   1.00
H4411  H     0.38097   0.62637   0.29091   0.00000  Uiso   1.00
H4412  H     0.38223   0.65989   0.27596   0.00000  Uiso   1.00
H4413  H     0.36532   0.64836   0.26773   0.00000  Uiso   1.00
H4414  H     0.23062   0.67682   0.31194   0.00000  Uiso   1.00
H4415  H     0.24781   0.68726   0.31917   0.00000  Uiso   1.00
H4416  H     0.25086   0.69452   0.28590   0.00000  Uiso   1.00
H4417  H     0.25698   0.62131   0.30636   0.00000  Uiso   1.00
H4418  H     0.26336   0.64802   0.27520   0.00000  Uiso   1.00
H4419  H     0.28898   0.61853   0.28467   0.00000  Uiso   1.00
Si4420 Si    0.23341   0.39637   0.69388   0.00000  Uiso   1.00
Si4421 Si    0.15121   0.45055   0.71395   0.00000  Uiso   1.00
Si4422 Si    0.17868   0.39707   0.70325   0.00000  Uiso   1.00
Si4423 Si    0.20604   0.45028   0.70374   0.00000  Uiso   1.00
O4424  O     0.17564   0.44918   0.71912   0.00000  Uiso   1.00
O4425  O     0.16242   0.42876   0.69967   0.00000  Uiso   1.00
O4426  O     0.20661   0.38823   0.70748   0.00000  Uiso   1.00
O4427  O     0.22465   0.42808   0.68854   0.00000  Uiso   1.00
C4428  C     0.24588   0.36857   0.71807   0.00000  Uiso   1.00
C4429  C     0.25719   0.40329   0.66164   0.00000  Uiso   1.00
C4430  C     0.12374   0.44745   0.74278   0.00000  Uiso   1.00
C4431  C     0.14204   0.47625   0.68747   0.00000  Uiso   1.00
C4432  C     0.18417   0.38546   0.67909   0.00000  Uiso   1.00
C4433  C     0.17297   0.37446   0.73553   0.00000  Uiso   1.00
C4434  C     0.18726   0.48128   0.68501   0.00000  Uiso   1.00
C4435  C     0.20899   0.44992   0.73064   0.00000  Uiso   1.00
H4436  H     0.26358   0.37262   0.71464   0.00000  Uiso   1.00
H4437  H     0.23161   0.36739   0.73754   0.00000  Uiso   1.00
H4438  H     0.25318   0.35098   0.71434   0.00000  Uiso   1.00
H4439  H     0.26427   0.38516   0.65749   0.00000  Uiso   1.00
H4440  H     0.27280   0.40587   0.66225   0.00000  Uiso   1.00
H4441  H     0.24667   0.41987   0.64812   0.00000  Uiso   1.00
H4442  H     0.10791   0.44949   0.73816   0.00000  Uiso   1.00
H4443  H     0.11499   0.46252   0.75192   0.00000  Uiso   1.00
H4444  H     0.12833   0.42896   0.75901   0.00000  Uiso   1.00
H4445  H     0.12564   0.47369   0.68891   0.00000  Uiso   1.00
H4446  H     0.13471   0.49542   0.69061   0.00000  Uiso   1.00
H4447  H     0.15729   0.47515   0.66895   0.00000  Uiso   1.00
H4448  H     0.18804   0.40097   0.66003   0.00000  Uiso   1.00
H4449  H     0.16515   0.38172   0.68595   0.00000  Uiso   1.00
H4450  H     0.20079   0.36629   0.67915   0.00000  Uiso   1.00
H4451  H     0.19103   0.35874   0.73797   0.00000  Uiso   1.00
H4452  H     0.16731   0.38553   0.74806   0.00000  Uiso   1.00
H4453  H     0.15572   0.36828   0.74307   0.00000  Uiso   1.00
H4454  H     0.18950   0.47744   0.66825   0.00000  Uiso   1.00
H4455  H     0.16628   0.48911   0.69692   0.00000  Uiso   1.00
H4456  H     0.19774   0.49430   0.67770   0.00000  Uiso   1.00
H4457  H     0.22317   0.45982   0.72243   0.00000  Uiso   1.00
H4458  H     0.21545   0.43067   0.74412   0.00000  Uiso   1.00
H4459  H     0.19096   0.46209   0.74071   0.00000  Uiso   1.00
Si4460 Si    0.80142   0.74588   0.58922   0.00000  Uiso   1.00
Si4461 Si    0.85453   0.78772   0.56495   0.00000  Uiso   1.00
Si4462 Si    0.80513   0.77678   0.61382   0.00000  Uiso   1.00
Si4463 Si    0.85028   0.75755   0.53997   0.00000  Uiso   1.00
O4464  O     0.86167   0.76499   0.55359   0.00000  Uiso   1.00
O4465  O     0.82422   0.79270   0.58651   0.00000  Uiso   1.00
O4466  O     0.80592   0.75222   0.60933   0.00000  Uiso   1.00
O4467  O     0.81960   0.75803   0.55850   0.00000  Uiso   1.00
C4468  C     0.77598   0.76251   0.57470   0.00000  Uiso   1.00
C4469  C     0.79927   0.71645   0.61990   0.00000  Uiso   1.00
C4470  C     0.87550   0.78484   0.57807   0.00000  Uiso   1.00
C4471  C     0.84271   0.82171   0.54463   0.00000  Uiso   1.00
C4472  C     0.81975   0.75132   0.63794   0.00000  Uiso   1.00
C4473  C     0.77270   0.79769   0.62555   0.00000  Uiso   1.00
C4474  C     0.85435   0.78833   0.51477   0.00000  Uiso   1.00
C4475  C     0.87585   0.72947   0.53601   0.00000  Uiso   1.00
H4476  H     0.77904   0.75235   0.56351   0.00000  Uiso   1.00
H4477  H     0.77210   0.78288   0.56645   0.00000  Uiso   1.00
H4478  H     0.75838   0.76114   0.59171   0.00000  Uiso   1.00
H4479  H     0.79310   0.70305   0.61902   0.00000  Uiso   1.00
H4480  H     0.81675   0.70427   0.62512   0.00000  Uiso   1.00
H4481  H     0.78200   0.72310   0.63699   0.00000  Uiso   1.00
H4482  H     0.87662   0.80373   0.57386   0.00000  Uiso   1.00
H4483  H     0.89498   0.77039   0.56953   0.00000  Uiso   1.00
H4484  H     0.87023   0.77540   0.59931   0.00000  Uiso   1.00
H4485  H     0.82709   0.82397   0.53856   0.00000  Uiso   1.00
H4486  H     0.83567   0.83286   0.55741   0.00000  Uiso   1.00
H4487  H     0.85960   0.82384   0.52749   0.00000  Uiso   1.00
H4488  H     0.80656   0.74096   0.65233   0.00000  Uiso   1.00
H4489  H     0.82256   0.76119   0.64599   0.00000  Uiso   1.00
H4490  H     0.83821   0.73847   0.62925   0.00000  Uiso   1.00
H4491  H     0.77111   0.81728   0.60896   0.00000  Uiso   1.00
H4492  H     0.77317   0.79791   0.64239   0.00000  Uiso   1.00
H4493  H     0.75724   0.79082   0.62974   0.00000  Uiso   1.00
H4494  H     0.83613   0.80310   0.51974   0.00000  Uiso   1.00
H4495  H     0.85889   0.78496   0.49693   0.00000  Uiso   1.00
H4496  H     0.87072   0.79155   0.51305   0.00000  Uiso   1.00
H4497  H     0.89356   0.73397   0.52295   0.00000  Uiso   1.00
H4498  H     0.87071   0.72129   0.52742   0.00000  Uiso   1.00
H4499  H     0.87836   0.71593   0.55515   0.00000  Uiso   1.00
Si4500 Si    0.60399   0.29954   0.46304   0.00000  Uiso   1.00
Si4501 Si    0.58522   0.38281   0.41091   0.00000  Uiso   1.00
Si4502 Si    0.57000   0.35408   0.47197   0.00000  Uiso   1.00
Si4503 Si    0.61851   0.32823   0.40200   0.00000  Uiso   1.00
O4504  O     0.61081   0.35784   0.40214   0.00000  Uiso   1.00
O4505  O     0.56744   0.37171   0.44217   0.00000  Uiso   1.00
O4506  O     0.59387   0.32539   0.47144   0.00000  Uiso   1.00
O4507  O     0.60557   0.30973   0.43219   0.00000  Uiso   1.00
C4508  C     0.62197   0.28885   0.48452   0.00000  Uiso   1.00
C4509  C     0.59231   0.27408   0.46918   0.00000  Uiso   1.00
C4510  C     0.55573   0.39334   0.40463   0.00000  Uiso   1.00
C4511  C     0.59138   0.41005   0.40679   0.00000  Uiso   1.00
C4512  C     0.54000   0.35157   0.49851   0.00000  Uiso   1.00
C4513  C     0.58949   0.35833   0.48226   0.00000  Uiso   1.00
C4514  C     0.65301   0.32115   0.38471   0.00000  Uiso   1.00
C4515  C     0.59514   0.34803   0.38383   0.00000  Uiso   1.00
H4516  H     0.62867   0.30364   0.48107   0.00000  Uiso   1.00
H4517  H     0.63888   0.27142   0.48191   0.00000  Uiso   1.00
H4518  H     0.60779   0.28453   0.50438   0.00000  Uiso   1.00
H4519  H     0.58277   0.26744   0.49060   0.00000  Uiso   1.00
H4520  H     0.57981   0.28283   0.45875   0.00000  Uiso   1.00
H4521  H     0.60861   0.25751   0.46312   0.00000  Uiso   1.00
H4522  H     0.54966   0.37726   0.40948   0.00000  Uiso   1.00
H4523  H     0.54002   0.40763   0.41521   0.00000  Uiso   1.00
H4524  H     0.56010   0.40335   0.38397   0.00000  Uiso   1.00
H4525  H     0.60711   0.40187   0.41488   0.00000  Uiso   1.00
H4526  H     0.59448   0.42211   0.38569   0.00000  Uiso   1.00
H4527  H     0.57309   0.42404   0.41617   0.00000  Uiso   1.00
H4528  H     0.54504   0.33209   0.51138   0.00000  Uiso   1.00
H4529  H     0.52635   0.35276   0.49081   0.00000  Uiso   1.00
H4530  H     0.53158   0.36565   0.50837   0.00000  Uiso   1.00
H4531  H     0.59281   0.34225   0.50046   0.00000  Uiso   1.00
H4532  H     0.60850   0.35893   0.46596   0.00000  Uiso   1.00
H4533  H     0.57709   0.37723   0.48686   0.00000  Uiso   1.00
H4534  H     0.65798   0.33899   0.37483   0.00000  Uiso   1.00
H4535  H     0.66076   0.30866   0.40089   0.00000  Uiso   1.00
H4536  H     0.65896   0.31050   0.37212   0.00000  Uiso   1.00
H4537  H     0.59480   0.36890   0.37304   0.00000  Uiso   1.00
H4538  H     0.57557   0.34792   0.39639   0.00000  Uiso   1.00
H4539  H     0.60231   0.33843   0.36965   0.00000  Uiso   1.00
Si4540 Si    0.64242   0.85728   0.50044   0.00000  Uiso   1.00
Si4541 Si    0.64395   0.89259   0.41788   0.00000  Uiso   1.00
Si4542 Si    0.61463   0.91265   0.46595   0.00000  Uiso   1.00
Si4543 Si    0.67108   0.83694   0.45263   0.00000  Uiso   1.00
O4544  O     0.66702   0.86618   0.42925   0.00000  Uiso   1.00
O4545  O     0.61996   0.90349   0.44234   0.00000  Uiso   1.00
O4546  O     0.63407   0.88923   0.48356   0.00000  Uiso   1.00
O4547  O     0.65105   0.84054   0.48175   0.00000  Uiso   1.00
C4548  C     0.63100   0.83143   0.52268   0.00000  Uiso   1.00
C4549  C     0.65238   0.86939   0.51344   0.00000  Uiso   1.00
C4550  C     0.61724   0.88784   0.41800   0.00000  Uiso   1.00
C4551  C     0.65762   0.91664   0.38861   0.00000  Uiso   1.00
C4552  C     0.63415   0.93188   0.45673   0.00000  Uiso   1.00
C4553  C     0.57998   0.92420   0.48758   0.00000  Uiso   1.00
C4554  C     0.65704   0.83145   0.43802   0.00000  Uiso   1.00
C4555  C     0.70694   0.82950   0.43763   0.00000  Uiso   1.00
H4556  H     0.62087   0.83008   0.51410   0.00000  Uiso   1.00
H4557  H     0.61911   0.83849   0.53812   0.00000  Uiso   1.00
H4558  H     0.64771   0.81382   0.52595   0.00000  Uiso   1.00
H4559  H     0.66403   0.85147   0.52592   0.00000  Uiso   1.00
H4560  H     0.63560   0.87866   0.52613   0.00000  Uiso   1.00
H4561  H     0.66296   0.88304   0.49818   0.00000  Uiso   1.00
H4562  H     0.60077   0.90665   0.41765   0.00000  Uiso   1.00
H4563  H     0.61539   0.87118   0.43570   0.00000  Uiso   1.00
H4564  H     0.62443   0.88319   0.39978   0.00000  Uiso   1.00
H4565  H     0.66721   0.92132   0.39602   0.00000  Uiso   1.00
H4566  H     0.63989   0.93337   0.38516   0.00000  Uiso   1.00
H4567  H     0.66958   0.90941   0.37243   0.00000  Uiso   1.00
H4568  H     0.65189   0.92590   0.44152   0.00000  Uiso   1.00
H4569  H     0.63655   0.93078   0.47368   0.00000  Uiso   1.00
H4570  H     0.62179   0.95275   0.44874   0.00000  Uiso   1.00
H4571  H     0.57197   0.94411   0.47694   0.00000  Uiso   1.00
H4572  H     0.56700   0.91575   0.48978   0.00000  Uiso   1.00
H4573  H     0.57828   0.92129   0.50689   0.00000  Uiso   1.00
H4574  H     0.65924   0.84491   0.41771   0.00000  Uiso   1.00
H4575  H     0.63590   0.83440   0.44852   0.00000  Uiso   1.00
H4576  H     0.66657   0.81156   0.43821   0.00000  Uiso   1.00
H4577  H     0.71187   0.84044   0.41699   0.00000  Uiso   1.00
H4578  H     0.71294   0.83624   0.44634   0.00000  Uiso   1.00
H4579  H     0.71692   0.80863   0.44174   0.00000  Uiso   1.00
Si4580 Si    0.34633   0.20600   0.41964   0.00000  Uiso   1.00
Si4581 Si    0.36126   0.25256   0.33470   0.00000  Uiso   1.00
Si4582 Si    0.31092   0.24551   0.38401   0.00000  Uiso   1.00
Si4583 Si    0.39673   0.21236   0.37019   0.00000  Uiso   1.00
O4584  O     0.38176   0.24030   0.35080   0.00000  Uiso   1.00
O4585  O     0.33443   0.24427   0.35526   0.00000  Uiso   1.00
O4586  O     0.32452   0.23280   0.40675   0.00000  Uiso   1.00
O4587  O     0.37452   0.19903   0.39572   0.00000  Uiso   1.00
C4588  C     0.33788   0.21957   0.44330   0.00000  Uiso   1.00
C4589  C     0.35515   0.17047   0.43008   0.00000  Uiso   1.00
C4590  C     0.35564   0.28564   0.31572   0.00000  Uiso   1.00
C4591  C     0.36719   0.23204   0.31808   0.00000  Uiso   1.00
C4592  C     0.29293   0.27699   0.38986   0.00000  Uiso   1.00
C4593  C     0.28516   0.23170   0.39594   0.00000  Uiso   1.00
C4594  C     0.41788   0.21918   0.37678   0.00000  Uiso   1.00
C4595  C     0.40733   0.20691   0.34094   0.00000  Uiso   1.00
H4596  H     0.34178   0.23864   0.43340   0.00000  Uiso   1.00
H4597  H     0.35059   0.20413   0.45523   0.00000  Uiso   1.00
H4598  H     0.31714   0.22088   0.45729   0.00000  Uiso   1.00
H4599  H     0.33882   0.16563   0.44702   0.00000  Uiso   1.00
H4600  H     0.37220   0.15939   0.43692   0.00000  Uiso   1.00
H4601  H     0.35814   0.16378   0.41482   0.00000  Uiso   1.00
H4602  H     0.37110   0.28831   0.29607   0.00000  Uiso   1.00
H4603  H     0.33692   0.29061   0.31410   0.00000  Uiso   1.00
H4604  H     0.35239   0.29849   0.32511   0.00000  Uiso   1.00
H4605  H     0.35208   0.23813   0.30936   0.00000  Uiso   1.00
H4606  H     0.38477   0.23410   0.30186   0.00000  Uiso   1.00
H4607  H     0.36985   0.21190   0.33131   0.00000  Uiso   1.00
H4608  H     0.28788   0.27276   0.41151   0.00000  Uiso   1.00
H4609  H     0.27533   0.28532   0.38432   0.00000  Uiso   1.00
H4610  H     0.30349   0.29086   0.37838   0.00000  Uiso   1.00
H4611  H     0.27747   0.22476   0.41792   0.00000  Uiso   1.00
H4612  H     0.29480   0.21739   0.38684   0.00000  Uiso   1.00
H4613  H     0.26875   0.24662   0.38939   0.00000  Uiso   1.00
H4614  H     0.42822   0.23116   0.35947   0.00000  Uiso   1.00
H4615  H     0.43303   0.20091   0.38364   0.00000  Uiso   1.00
H4616  H     0.40718   0.22534   0.39346   0.00000  Uiso   1.00
H4617  H     0.39302   0.19886   0.34480   0.00000  Uiso   1.00
H4618  H     0.40778   0.22596   0.32375   0.00000  Uiso   1.00
H4619  H     0.42714   0.19272   0.33848   0.00000  Uiso   1.00
Si4620 Si    0.17722   0.28815   0.50321   0.00000  Uiso   1.00
Si4621 Si    0.12419   0.33784   0.45554   0.00000  Uiso   1.00
Si4622 Si    0.18487   0.30764   0.44343   0.00000  Uiso   1.00
Si4623 Si    0.11666   0.31905   0.51520   0.00000  Uiso   1.00
O4624  O     0.11494   0.32248   0.48783   0.00000  Uiso   1.00
O4625  O     0.15637   0.33207   0.44390   0.00000  Uiso   1.00
O4626  O     0.18376   0.28785   0.47401   0.00000  Uiso   1.00
O4627  O     0.14791   0.31028   0.51163   0.00000  Uiso   1.00
C4628  C     0.18560   0.30260   0.51510   0.00000  Uiso   1.00
C4629  C     0.19306   0.25338   0.51019   0.00000  Uiso   1.00
C4630  C     0.12390   0.37107   0.44437   0.00000  Uiso   1.00
C4631  C     0.11276   0.33404   0.43677   0.00000  Uiso   1.00
C4632  C     0.21349   0.31744   0.42264   0.00000  Uiso   1.00
C4633  C     0.19167   0.27787   0.44045   0.00000  Uiso   1.00
C4634  C     0.09955   0.35417   0.50300   0.00000  Uiso   1.00
C4635  C     0.09803   0.30043   0.54488   0.00000  Uiso   1.00
H4636  H     0.20688   0.29494   0.51106   0.00000  Uiso   1.00
H4637  H     0.17647   0.29599   0.53691   0.00000  Uiso   1.00
H4638  H     0.18061   0.32421   0.50572   0.00000  Uiso   1.00
H4639  H     0.21312   0.24693   0.49756   0.00000  Uiso   1.00
H4640  H     0.19072   0.24375   0.53079   0.00000  Uiso   1.00
H4641  H     0.18154   0.24810   0.50479   0.00000  Uiso   1.00
H4642  H     0.10365   0.38461   0.44850   0.00000  Uiso   1.00
H4643  H     0.13810   0.37607   0.42418   0.00000  Uiso   1.00
H4644  H     0.13131   0.37120   0.45677   0.00000  Uiso   1.00
H4645  H     0.12698   0.33579   0.41591   0.00000  Uiso   1.00
H4646  H     0.10661   0.31628   0.44831   0.00000  Uiso   1.00
H4647  H     0.09520   0.35165   0.43433   0.00000  Uiso   1.00
H4648  H     0.22281   0.31421   0.40360   0.00000  Uiso   1.00
H4649  H     0.22595   0.30646   0.43500   0.00000  Uiso   1.00
H4650  H     0.20935   0.33782   0.41798   0.00000  Uiso   1.00
H4651  H     0.17367   0.27203   0.45417   0.00000  Uiso   1.00
H4652  H     0.19388   0.28235   0.42012   0.00000  Uiso   1.00
H4653  H     0.20996   0.26559   0.44367   0.00000  Uiso   1.00
H4654  H     0.08922   0.36039   0.52056   0.00000  Uiso   1.00
H4655  H     0.11452   0.36294   0.48867   0.00000  Uiso   1.00
H4656  H     0.08597   0.35819   0.49393   0.00000  Uiso   1.00
H4657  H     0.09318   0.30525   0.56180   0.00000  Uiso   1.00
H4658  H     0.10937   0.27969   0.54739   0.00000  Uiso   1.00
H4659  H     0.08058   0.30596   0.54162   0.00000  Uiso   1.00
Si4660 Si    0.12997   0.42340   0.20498   0.00000  Uiso   1.00
Si4661 Si    0.17150   0.48179   0.15917   0.00000  Uiso   1.00
Si4662 Si    0.14453   0.45512   0.21918   0.00000  Uiso   1.00
Si4663 Si    0.15616   0.45072   0.14495   0.00000  Uiso   1.00
O4664  O     0.17418   0.46073   0.14832   0.00000  Uiso   1.00
O4665  O     0.15046   0.47793   0.18973   0.00000  Uiso   1.00
O4666  O     0.14406   0.43017   0.21647   0.00000  Uiso   1.00
O4667  O     0.13346   0.44223   0.17373   0.00000  Uiso   1.00
C4668  C     0.09826   0.43255   0.20310   0.00000  Uiso   1.00
C4669  C     0.14474   0.38989   0.22242   0.00000  Uiso   1.00
C4670  C     0.20020   0.47995   0.16077   0.00000  Uiso   1.00
C4671  C     0.15016   0.51563   0.15077   0.00000  Uiso   1.00
C4672  C     0.11552   0.46545   0.24540   0.00000  Uiso   1.00
C4673  C     0.17307   0.43000   0.22821   0.00000  Uiso   1.00
C4674  C     0.17707   0.42749   0.12672   0.00000  Uiso   1.00
C4675  C     0.14543   0.48379   0.12417   0.00000  Uiso   1.00
H4676  H     0.09856   0.42294   0.19299   0.00000  Uiso   1.00
H4677  H     0.08623   0.42690   0.22408   0.00000  Uiso   1.00
H4678  H     0.09113   0.45344   0.19488   0.00000  Uiso   1.00
H4679  H     0.16563   0.38740   0.21538   0.00000  Uiso   1.00
H4680  H     0.14276   0.37667   0.21737   0.00000  Uiso   1.00
H4681  H     0.13535   0.38604   0.24421   0.00000  Uiso   1.00
H4682  H     0.21304   0.48632   0.14025   0.00000  Uiso   1.00
H4683  H     0.19375   0.49546   0.16867   0.00000  Uiso   1.00
H4684  H     0.20781   0.46038   0.17406   0.00000  Uiso   1.00
H4685  H     0.13021   0.51612   0.15822   0.00000  Uiso   1.00
H4686  H     0.15745   0.52418   0.12859   0.00000  Uiso   1.00
H4687  H     0.14965   0.52687   0.16066   0.00000  Uiso   1.00
H4688  H     0.11217   0.44912   0.26150   0.00000  Uiso   1.00
H4689  H     0.09958   0.47408   0.23739   0.00000  Uiso   1.00
H4690  H     0.11566   0.48063   0.24976   0.00000  Uiso   1.00
H4691  H     0.18231   0.43794   0.23092   0.00000  Uiso   1.00
H4692  H     0.19028   0.41928   0.21369   0.00000  Uiso   1.00
H4693  H     0.16610   0.41570   0.24637   0.00000  Uiso   1.00
H4694  H     0.16655   0.43711   0.11267   0.00000  Uiso   1.00
H4695  H     0.19747   0.42522   0.11713   0.00000  Uiso   1.00
H4696  H     0.17637   0.40829   0.13906   0.00000  Uiso   1.00
H4697  H     0.13141   0.49537   0.13684   0.00000  Uiso   1.00
H4698  H     0.13621   0.48049   0.11462   0.00000  Uiso   1.00
H4699  H     0.16317   0.49033   0.11140   0.00000  Uiso   1.00
Si4700 Si    0.56792   0.85171   0.21328   0.00000  Uiso   1.00
Si4701 Si    0.53430   0.79870   0.29171   0.00000  Uiso   1.00
Si4702 Si    0.59130   0.79986   0.25434   0.00000  Uiso   1.00
Si4703 Si    0.51098   0.85006   0.25025   0.00000  Uiso   1.00
O4704  O     0.51809   0.82975   0.27773   0.00000  Uiso   1.00
O4705  O     0.56499   0.79040   0.27153   0.00000  Uiso   1.00
O4706  O     0.58279   0.83123   0.23565   0.00000  Uiso   1.00
O4707  O     0.53863   0.84895   0.22464   0.00000  Uiso   1.00
C4708  C     0.56306   0.85784   0.18309   0.00000  Uiso   1.00
C4709  C     0.58468   0.87094   0.20897   0.00000  Uiso   1.00
C4710  C     0.53026   0.79041   0.32492   0.00000  Uiso   1.00
C4711  C     0.53026   0.77486   0.28683   0.00000  Uiso   1.00
C4712  C     0.61964   0.78184   0.23316   0.00000  Uiso   1.00
C4713  C     0.60017   0.80506   0.27397   0.00000  Uiso   1.00
C4714  C     0.48926   0.88075   0.25655   0.00000  Uiso   1.00
C4715  C     0.49768   0.82595   0.26003   0.00000  Uiso   1.00
H4716  H     0.58237   0.85553   0.16769   0.00000  Uiso   1.00
H4717  H     0.54877   0.87799   0.17755   0.00000  Uiso   1.00
H4718  H     0.55574   0.84302   0.18644   0.00000  Uiso   1.00
H4719  H     0.58059   0.87206   0.22733   0.00000  Uiso   1.00
H4720  H     0.57686   0.88927   0.19498   0.00000  Uiso   1.00
H4721  H     0.60548   0.86145   0.19856   0.00000  Uiso   1.00
H4722  H     0.51050   0.78975   0.33517   0.00000  Uiso   1.00
H4723  H     0.53006   0.80571   0.32936   0.00000  Uiso   1.00
H4724  H     0.54547   0.77177   0.33256   0.00000  Uiso   1.00
H4725  H     0.54287   0.75664   0.29619   0.00000  Uiso   1.00
H4726  H     0.51132   0.77661   0.29558   0.00000  Uiso   1.00
H4727  H     0.53531   0.77648   0.26654   0.00000  Uiso   1.00
H4728  H     0.61661   0.78591   0.21630   0.00000  Uiso   1.00
H4729  H     0.63571   0.78882   0.22628   0.00000  Uiso   1.00
H4730  H     0.62390   0.76150   0.24659   0.00000  Uiso   1.00
H4731  H     0.58261   0.81529   0.28654   0.00000  Uiso   1.00
H4732  H     0.61357   0.81648   0.26214   0.00000  Uiso   1.00
H4733  H     0.60830   0.78606   0.28808   0.00000  Uiso   1.00
H4734  H     0.47771   0.89216   0.24401   0.00000  Uiso   1.00
H4735  H     0.47627   0.87837   0.27752   0.00000  Uiso   1.00
H4736  H     0.50253   0.89176   0.24990   0.00000  Uiso   1.00
H4737  H     0.48411   0.83569   0.24949   0.00000  Uiso   1.00
H4738  H     0.48899   0.81773   0.28128   0.00000  Uiso   1.00
H4739  H     0.51439   0.81123   0.25271   0.00000  Uiso   1.00
Si4740 Si    0.41525   0.43640   0.56414   0.00000  Uiso   1.00
Si4741 Si    0.49529   0.42929   0.55047   0.00000  Uiso   1.00
Si4742 Si    0.47264   0.40320   0.53812   0.00000  Uiso   1.00
Si4743 Si    0.43787   0.46184   0.57727   0.00000  Uiso   1.00
O4744  O     0.46816   0.45459   0.55609   0.00000  Uiso   1.00
O4745  O     0.48774   0.40679   0.55121   0.00000  Uiso   1.00
O4746  O     0.44262   0.42528   0.54155   0.00000  Uiso   1.00
O4747  O     0.42255   0.44403   0.58115   0.00000  Uiso   1.00
C4748  C     0.39259   0.42598   0.59645   0.00000  Uiso   1.00
C4749  C     0.40710   0.44581   0.53591   0.00000  Uiso   1.00
C4750  C     0.52249   0.43690   0.51927   0.00000  Uiso   1.00
C4751  C     0.50742   0.40758   0.57663   0.00000  Uiso   1.00
C4752  C     0.48001   0.41832   0.50333   0.00000  Uiso   1.00
C4753  C     0.47033   0.37118   0.54926   0.00000  Uiso   1.00
C4754  C     0.42584   0.49770   0.56425   0.00000  Uiso   1.00
C4755  C     0.45539   0.44837   0.59945   0.00000  Uiso   1.00
H4756  H     0.38380   0.41411   0.59776   0.00000  Uiso   1.00
H4757  H     0.40223   0.41429   0.61017   0.00000  Uiso   1.00
H4758  H     0.37795   0.44399   0.60239   0.00000  Uiso   1.00
H4759  H     0.38762   0.45722   0.53868   0.00000  Uiso   1.00
H4760  H     0.41192   0.42815   0.53157   0.00000  Uiso   1.00
H4761  H     0.41906   0.45893   0.52097   0.00000  Uiso   1.00
H4762  H     0.51302   0.44899   0.50333   0.00000  Uiso   1.00
H4763  H     0.53692   0.41753   0.51732   0.00000  Uiso   1.00
H4764  H     0.53045   0.44782   0.52077   0.00000  Uiso   1.00
H4765  H     0.51437   0.41762   0.58107   0.00000  Uiso   1.00
H4766  H     0.49358   0.39944   0.59475   0.00000  Uiso   1.00
H4767  H     0.52299   0.39094   0.56887   0.00000  Uiso   1.00
H4768  H     0.48499   0.43612   0.49686   0.00000  Uiso   1.00
H4769  H     0.49691   0.40374   0.49526   0.00000  Uiso   1.00
H4770  H     0.46324   0.42238   0.49838   0.00000  Uiso   1.00
H4771  H     0.45977   0.36408   0.57113   0.00000  Uiso   1.00
H4772  H     0.45911   0.37345   0.53905   0.00000  Uiso   1.00
H4773  H     0.49137   0.35717   0.54297   0.00000  Uiso   1.00
H4774  H     0.41541   0.50543   0.54971   0.00000  Uiso   1.00
H4775  H     0.44251   0.50626   0.55476   0.00000  Uiso   1.00
H4776  H     0.41306   0.50265   0.58193   0.00000  Uiso   1.00
H4777  H     0.47159   0.45620   0.59167   0.00000  Uiso   1.00
H4778  H     0.46192   0.42695   0.60479   0.00000  Uiso   1.00
H4779  H     0.44106   0.45624   0.61535   0.00000  Uiso   1.00
Si4780 Si    0.11455   0.03476   0.49779   0.00000  Uiso   1.00
Si4781 Si    0.16290   0.06856   0.49734   0.00000  Uiso   1.00
Si4782 Si    0.16965   0.01242   0.50385   0.00000  Uiso   1.00
Si4783 Si    0.10743   0.09071   0.49214   0.00000  Uiso   1.00
O4784  O     0.13887   0.08554   0.48456   0.00000  Uiso   1.00
O4785  O     0.16577   0.03696   0.51073   0.00000  Uiso   1.00
O4786  O     0.14688   0.02188   0.49146   0.00000  Uiso   1.00
O4787  O     0.10303   0.06206   0.50438   0.00000  Uiso   1.00
C4788  C     0.11849   0.02741   0.47152   0.00000  Uiso   1.00
C4789  C     0.07981   0.04082   0.51948   0.00000  Uiso   1.00
C4790  C     0.15552   0.06373   0.53052   0.00000  Uiso   1.00
C4791  C     0.19385   0.07532   0.47778   0.00000  Uiso   1.00
C4792  C     0.16983  -0.01715   0.53219   0.00000  Uiso   1.00
C4793  C     0.19328   0.00935   0.47310   0.00000  Uiso   1.00
C4794  C     0.09444   0.10248   0.51935   0.00000  Uiso   1.00
C4795  C     0.10148   0.11385   0.46242   0.00000  Uiso   1.00
H4796  H     0.11767   0.00730   0.47805   0.00000  Uiso   1.00
H4797  H     0.10049   0.03993   0.46663   0.00000  Uiso   1.00
H4798  H     0.13577   0.03063   0.45464   0.00000  Uiso   1.00
H4799  H     0.07732   0.02201   0.52631   0.00000  Uiso   1.00
H4800  H     0.06606   0.05698   0.50886   0.00000  Uiso   1.00
H4801  H     0.07598   0.04502   0.53665   0.00000  Uiso   1.00
H4802  H     0.17344   0.05246   0.53609   0.00000  Uiso   1.00
H4803  H     0.14858   0.08367   0.53110   0.00000  Uiso   1.00
H4804  H     0.14097   0.05402   0.54371   0.00000  Uiso   1.00
H4805  H     0.21160   0.05862   0.48228   0.00000  Uiso   1.00
H4806  H     0.19265   0.08315   0.45815   0.00000  Uiso   1.00
H4807  H     0.19076   0.09134   0.48290   0.00000  Uiso   1.00
H4808  H     0.16856  -0.03201   0.52888   0.00000  Uiso   1.00
H4809  H     0.15306  -0.01269   0.54948   0.00000  Uiso   1.00
H4810  H     0.18728  -0.02454   0.53728   0.00000  Uiso   1.00
H4811  H     0.19514  -0.00901   0.47327   0.00000  Uiso   1.00
H4812  H     0.18744   0.02410   0.45679   0.00000  Uiso   1.00
H4813  H     0.21287   0.00707   0.47078   0.00000  Uiso   1.00
H4814  H     0.09130   0.08551   0.53679   0.00000  Uiso   1.00
H4815  H     0.07577   0.11726   0.51872   0.00000  Uiso   1.00
H4816  H     0.10811   0.11067   0.51603   0.00000  Uiso   1.00
H4817  H     0.08004   0.12289   0.46719   0.00000  Uiso   1.00
H4818  H     0.11032   0.12955   0.45396   0.00000  Uiso   1.00
H4819  H     0.11001   0.10179   0.45057   0.00000  Uiso   1.00
loop_
_geom_bond_atom_site_label_1
_geom_bond_atom_site_label_2
_geom_bond_distance
_geom_bond_site_symmetry_2
_ccdc_geom_bond_type
Cr1    O8      1.883   .     S
Cr1    O805    1.953   .     S
Cr1    O1735   1.966   .     S
Cr1    O2609   2.050   .     S
Cr1    O2992   2.121   .     S
Cr2    O3      1.996   .     S
Cr2    O2727   2.036   .     S
Cr2    O2730   2.014   .     S
Cr2    O2903   1.992   .     S
Cr2    O3169   2.174   .     S
O3     C3170   1.294   .     D
O4     Cr2971  1.968   .     S
O4     C3172   1.209   .     D
O5     C22     1.303   .     D
O5     Cr2900  1.991   .     S
O6     C22     1.318   .     S
O6     Cr3228  2.100   .     S
O7     C26     1.252   .     S
O7     Cr799   1.952   .     S
O8     C26     1.293   .     D
O9     C30     1.268   .     S
O9     Cr1973  1.966   .     S
O10    C30     1.280   .     D
O10    Cr3036  2.111   .     S
O11    C33     1.297   .     S
O11    Cr3050  2.071   .     S
O12    C33     1.290   .     D
O12    Cr3062  2.051   .     S
O13    Cr2840  2.037   .     S
O13    C3285   1.338   .     S
O14    Cr3062  2.055   .     S
O14    C3287   1.253   .     S
O15    C40     1.264   .     D
O15    Cr3222  1.975   .     S
O16    C40     1.240   .     S
O16    Cr2840  2.014   .     S
O17    C43     1.359   .     D
O17    Cr2593  2.050   .     S
O18    C43     1.303   .     S
O18    Cr3036  2.018   .     S
C19    C20     1.436   .     S
C19    H47     1.070   .     S
C19    C3171   1.427   .     D
C20    H48     1.070   .     S
C20    C3173   1.427   .     D
C21    C23     1.414   .     D
C21    H51     1.069   .     S
C21    C2300   1.414   .     S
C22    C23     1.413   .     S
C23    C24     1.442   .     S
C24    H62     1.070   .     S
C24    C2303   1.415   .     D
C25    C27     1.457   .     S
C25    H56     1.070   .     S
C25    C2618   1.450   .     D
C26    C27     1.455   .     S
C27    C28     1.425   .     D
C28    H57     1.068   .     S
C28    C2621   1.421   .     S
C29    C31     1.452   .     S
C29    C32     1.411   .     D
C29    H60     1.070   .     S
C30    C31     1.383   .     S
C31    C35     1.380   .     D
C32    C34     1.442   .     S
C32    H61     1.069   .     S
C33    C34     1.454   .     S
C34    C36     1.433   .     D
C35    C36     1.435   .     S
C35    H58     1.070   .     S
C36    H59     1.070   .     S
C37    C38     1.448   .     S
C37    H49     1.069   .     S
C37    C3286   1.391   .     D
C38    H50     1.069   .     S
C38    C3288   1.384   .     D
C39    C41     1.401   .     S
C39    C42     1.388   .     D
C39    H54     1.069   .     S
C40    C41     1.399   .     S
C41    C45     1.405   .     D
C42    C44     1.404   .     S
C42    H55     1.070   .     S
C43    C44     1.421   .     S
C44    C46     1.423   .     D
C45    C46     1.398   .     S
C45    H52     1.069   .     S
C46    H53     1.070   .     S
Cr63   O70     1.883   .     S
Cr63   O746    1.953   .     S
Cr63   O1857   1.966   .     S
Cr63   O2484   2.051   .     S
Cr63   O2990   2.122   1_556 S
Cr64   O65     1.997   .     S
Cr64   O2719   1.992   .     S
Cr64   O2911   2.037   .     S
Cr64   O2914   2.014   .     S
Cr64   O3163   2.173   .     S
O65    C3164   1.295   .     S
O66    Cr2973  1.968   .     S
O66    C3166   1.210   .     D
O67    C84     1.302   .     S
O67    Cr2715  1.992   .     S
O68    C84     1.318   .     D
O68    Cr3210  2.099   .     S
O69    C87     1.252   1_554 D
O69    Cr740   1.953   .     S
O70    C87     1.292   .     S
O71    C91     1.267   .     D
O71    Cr2156  1.966   .     S
O72    C91     1.280   .     S
O72    Cr3038  2.112   .     S
O73    C94     1.297   .     D
O73    Cr3051  2.071   .     S
O74    C94     1.291   .     S
O74    Cr3060  2.052   .     S
O75    Cr2779  2.036   .     S
O75    C3289   1.339   .     D
O76    Cr3060  2.055   .     S
O76    C3290   1.253   .     D
O77    C100    1.263   .     D
O77    Cr3216  1.976   .     S
O78    C100    1.240   .     S
O78    Cr2779  2.014   .     S
O79    C103    1.358   .     S
O79    Cr2467  2.051   .     S
O80    C103    1.303   .     D
O80    Cr3038  2.018   1_556 S
C81    C82     1.438   .     S
C81    H107    1.070   .     S
C81    C3165   1.426   .     D
C82    H108    1.069   .     S
C82    C3167   1.428   .     D
C83    C85     1.413   .     S
C83    H110    1.069   .     S
C83    C2241   1.414   .     D
C84    C85     1.414   .     S
C85    C86     1.442   .     D
C86    H120    1.070   .     S
C86    C2244   1.415   .     S
C87    O69     1.252   1_556 D
C87    C88     1.454   .     S
C88    C89     1.425   .     S
C88    C3385   1.458   1_556 D
C89    H115    1.069   .     S
C89    C2496   1.420   .     D
C90    C92     1.452   .     S
C90    C93     1.411   .     D
C90    H118    1.069   .     S
C91    C92     1.385   .     S
C92    C96     1.379   .     D
C93    C95     1.442   .     S
C93    H119    1.068   .     S
C94    C95     1.453   .     S
C95    C97     1.435   .     D
C96    C97     1.435   .     S
C96    H116    1.069   .     S
C97    H117    1.069   .     S
C98    H109    1.070   .     S
C98    C3291   1.384   .     D
C99    C101    1.401   .     S
C99    C102    1.388   .     D
C99    H113    1.069   .     S
C100   C101    1.399   .     S
C101   C105    1.404   .     D
C102   C104    1.403   .     S
C102   H114    1.070   .     S
C103   C104    1.422   .     S
C104   C106    1.423   .     D
C105   C106    1.398   .     S
C105   H111    1.069   .     S
C106   H112    1.071   .     S
Cr121  O129    1.884   .     S
Cr121  F140    2.053   .     S
Cr121  O869    1.953   .     S
Cr121  O1919   1.966   .     S
Cr121  O2672   2.050   .     S
Cr121  O2996   2.120   .     S
Cr122  O124    1.998   .     S
Cr122  O2783   1.991   .     S
Cr122  O2851   2.036   .     S
Cr122  O2854   2.014   .     S
Cr122  O3175   2.174   .     S
O123   Cr2973  1.973   1_556 S
O123   C3275   1.304   .     D
O124   C3176   1.294   .     S
O125   Cr2969  1.968   .     S
O125   C3178   1.209   .     S
O126   C145    1.303   .     D
O126   Cr2779  1.992   .     S
O127   C145    1.318   .     S
O127   Cr3216  2.100   .     S
O128   C148    1.253   1_545 D
O128   Cr862   1.953   .     S
O129   C148    1.291   .     S
O130   C152    1.268   .     D
O130   Cr2035  1.966   .     S
O131   C152    1.280   .     S
O131   Cr3034  2.112   .     S
O132   C155    1.297   .     D
O132   Cr3051  2.071   .     S
O133   C155    1.290   .     S
O133   Cr3059  2.052   .     S
O134   Cr2715  2.036   .     S
O134   C3292   1.339   .     D
O135   Cr3059  2.056   .     S
O135   C3293   1.252   .     D
O136   C161    1.263   .     D
O136   Cr3210  1.976   .     S
O137   C161    1.240   .     S
O137   Cr2715  2.013   .     S
O138   C164    1.359   .     D
O138   Cr2656  2.050   .     S
O139   C164    1.303   .     S
O139   Cr3034  2.018   1_565 S
C141   H171    1.069   .     S
C141   C2361   1.408   .     S
C141   C3276   1.444   .     D
C142   C143    1.436   .     D
C142   H168    1.070   .     S
C142   C3177   1.427   .     S
C143   H169    1.069   .     S
C143   C3179   1.428   .     S
C144   C146    1.414   .     S
C144   H172    1.069   .     S
C144   C2364   1.413   .     D
C145   C146    1.413   .     S
C146   C147    1.442   .     D
C147   H182    1.070   .     S
C147   C2367   1.415   .     S
C148   O128    1.253   1_565 D
C148   C149    1.454   .     S
C149   C150    1.425   .     S
C149   C3389   1.457   1_565 D
C150   H177    1.070   .     S
C150   C2682   1.420   .     D
C151   C153    1.453   .     D
C151   C154    1.410   .     S
C151   H180    1.070   .     S
C152   C153    1.384   .     S
C153   C157    1.379   .     S
C154   C156    1.442   .     D
C154   H181    1.069   .     S
C155   C156    1.453   .     S
C156   C158    1.434   .     S
C157   C158    1.436   .     D
C157   H178    1.069   .     S
C158   H179    1.069   .     S
C159   H170    1.070   .     S
C159   C3294   1.384   .     S
C160   C162    1.401   .     S
C160   C163    1.388   .     D
C160   H175    1.070   .     S
C161   C162    1.399   .     S
C162   C166    1.404   .     D
C163   C165    1.404   .     S
C163   H176    1.069   .     S
C164   C165    1.421   .     S
C165   C167    1.423   .     D
C166   C167    1.398   .     S
C166   H173    1.069   .     S
C167   H174    1.070   .     S
Cr183  O191    1.884   .     S
Cr183  O933    1.952   .     S
Cr183  O1797   1.965   .     S
Cr183  O2546   2.050   .     S
Cr183  O2994   2.121   1_655 S
Cr184  O186    1.997   .     S
Cr184  O2791   2.036   .     S
Cr184  O2794   2.015   .     S
Cr184  O2843   1.992   .     S
Cr184  O3181   2.173   .     S
O185   Cr2971  1.973   .     S
O185   C3273   1.303   .     D
O186   C3182   1.294   .     D
O187   C3184   1.209   .     D
O188   C206    1.303   .     S
O188   Cr2840  1.992   .     S
O189   C206    1.317   .     D
O189   Cr3222  2.100   .     S
O190   C209    1.253   1_455 S
O190   Cr926   1.953   .     S
O191   C209    1.292   .     D
O192   C213    1.268   .     S
O192   Cr2094  1.966   .     S
O193   C213    1.280   .     D
O193   Cr3040  2.112   1_455 S
O194   C216    1.296   .     D
O194   Cr3050  2.071   .     S
O195   C216    1.291   .     S
O195   Cr3058  2.052   .     S
O196   Cr2900  2.036   .     S
O196   C3295   1.339   .     D
O197   Cr3058  2.056   .     S
O197   C3297   1.252   .     D
O198   C223    1.263   .     S
O198   Cr3228  1.976   .     S
O199   C223    1.240   .     D
O199   Cr2900  2.014   .     S
O200   C226    1.358   .     D
O200   Cr2529  2.050   .     S
O201   C226    1.304   .     S
O201   Cr3040  2.018   .     S
C202   H234    1.069   .     S
C202   C2425   1.409   .     D
C202   C3274   1.444   .     S
C203   C204    1.436   .     D
C203   H230    1.070   .     S
C203   C3183   1.427   .     S
C204   H231    1.069   .     S
C204   C3185   1.428   .     S
C205   C207    1.413   .     S
C205   H235    1.069   .     S
C205   C2428   1.414   .     D
C206   C207    1.413   .     S
C207   C208    1.443   .     D
C208   H245    1.069   .     S
C208   C2431   1.415   .     S
C209   O190    1.253   1_655 S
C209   C210    1.454   .     S
C210   C211    1.425   .     S
C210   C3393   1.457   1_655 D
C211   H240    1.069   .     S
C211   C2558   1.421   .     D
C212   C214    1.452   .     S
C212   C215    1.410   .     D
C212   H243    1.070   .     S
C213   C214    1.384   .     S
C214   C218    1.379   .     D
C215   C217    1.441   .     S
C215   H244    1.070   .     S
C216   C217    1.453   .     S
C217   C219    1.435   .     D
C218   C219    1.436   .     S
C218   H241    1.069   .     S
C219   H242    1.069   .     S
C220   C221    1.449   1_655 D
C220   H232    1.070   .     S
C220   C3296   1.391   .     S
C221   C220    1.449   1_455 D
C221   H233    1.069   .     S
C221   C3298   1.384   .     S
C222   C224    1.402   .     S
C222   C225    1.387   .     D
C222   H238    1.069   .     S
C223   C224    1.398   .     S
C224   C228    1.404   .     D
C225   C227    1.403   .     S
C225   H239    1.071   .     S
C226   C227    1.421   .     S
C227   C229    1.423   .     D
C228   C229    1.397   .     S
C228   H236    1.070   .     S
C229   H237    1.071   .     S
Cr246  O253    1.884   .     S
Cr246  O1423   1.954   .     S
Cr246  O1981   1.965   .     S
Cr246  O2295   2.050   .     S
Cr246  O3000   2.122   .     S
Cr247  O248    1.998   .     S
Cr247  F264    1.937   .     S
Cr247  O2542   2.037   .     S
Cr247  O2545   2.014   .     S
Cr247  O2597   1.992   .     S
Cr247  O3229   2.173   .     S
O248   C3230   1.294   .     S
O249   Cr2963  1.968   .     S
O249   C3232   1.209   .     D
O250   C268    1.303   .     D
O250   Cr2594  1.992   .     S
O251   C268    1.317   .     S
O251   Cr3198  2.100   .     S
O252   C272    1.253   .     S
O252   Cr1417  1.953   .     S
O253   C272    1.292   .     D
O254   C276    1.268   .     D
O254   Cr1481  1.966   .     S
O255   C276    1.281   .     S
O255   Cr3018  2.111   .     S
O256   C279    1.296   .     D
O256   Cr3055  2.071   .     S
O257   C279    1.290   .     S
O257   Cr3067  2.052   .     S
O258   Cr2657  2.037   .     S
O258   C3299   1.339   .     D
O259   Cr3067  2.055   .     S
O259   C3301   1.252   .     D
O260   C286    1.263   .     S
O260   Cr3204  1.976   .     S
O261   C286    1.241   .     D
O261   Cr2657  2.014   .     S
O262   C289    1.359   .     S
O262   Cr2279  2.049   .     S
O263   C289    1.303   .     D
O263   Cr3018  2.019   .     S
C265   C266    1.436   .     D
C265   H293    1.071   .     S
C265   C3231   1.426   .     S
C266   H294    1.069   .     S
C266   C3233   1.428   .     S
C267   C269    1.414   .     D
C267   H297    1.069   .     S
C267   C2920   1.413   .     S
C268   C269    1.412   .     S
C269   C270    1.443   .     S
C270   H308    1.070   .     S
C270   C2923   1.415   .     D
C271   C273    1.458   .     S
C271   H302    1.070   .     S
C271   C2304   1.450   .     D
C272   C273    1.454   .     S
C273   C274    1.424   .     D
C274   H303    1.069   .     S
C274   C2307   1.420   .     S
C275   C277    1.452   .     S
C275   C278    1.411   .     D
C275   H306    1.070   .     S
C276   C277    1.384   .     S
C277   C281    1.380   .     D
C278   C280    1.441   .     S
C278   H307    1.069   .     S
C279   C280    1.454   .     S
C280   C282    1.435   .     D
C281   C282    1.435   .     S
C281   H304    1.069   .     S
C282   H305    1.069   .     S
C283   C284    1.448   .     D
C283   H295    1.070   .     S
C283   C3300   1.390   .     S
C284   H296    1.069   .     S
C284   C3302   1.384   .     S
C285   C287    1.401   .     S
C285   C288    1.387   .     D
C285   H300    1.070   .     S
C286   C287    1.398   .     S
C287   C291    1.405   .     D
C288   C290    1.403   .     S
C288   H301    1.070   .     S
C289   C290    1.421   .     S
C290   C292    1.423   .     D
C291   C292    1.397   .     S
C291   H298    1.069   .     S
C292   H299    1.071   .     S
Cr309  O316    1.884   .     S
Cr309  O1364   1.953   .     S
Cr309  O2103   1.965   .     S
Cr309  O2422   2.050   .     S
Cr309  O2998   2.121   .     S
Cr310  O311    1.998   .     S
Cr310  O2534   1.991   .     S
Cr310  O2605   2.036   .     S
Cr310  O2608   2.014   .     S
Cr310  O3223   2.173   .     S
O311   C3224   1.294   .     S
O312   Cr2964  1.968   .     S
O312   C3226   1.209   .     D
O313   C330    1.303   .     S
O313   Cr2530  1.992   .     S
O314   C330    1.318   .     D
O314   Cr3192  2.099   .     S
O315   C333    1.252   1_455 S
O315   Cr1358  1.953   .     S
O316   C333    1.292   .     D
O317   C337    1.268   .     S
O317   Cr1663  1.966   .     S
O318   C337    1.281   .     D
O318   Cr3020  2.111   .     S
O319   C340    1.296   .     D
O319   Cr3056  2.071   .     S
O320   C340    1.290   .     S
O320   Cr3066  2.052   .     S
O321   Cr2468  2.037   .     S
O321   C3303   1.339   .     S
O322   Cr3066  2.056   .     S
O322   C3304   1.252   .     D
O323   C346    1.263   .     S
O323   Cr3186  1.975   .     S
O324   C346    1.240   .     D
O324   Cr2468  2.014   .     S
O325   C349    1.359   .     D
O325   Cr2405  2.050   .     S
O326   C349    1.303   .     S
O326   Cr3020  2.018   1_655 S
C327   C328    1.437   .     S
C327   H353    1.070   .     S
C327   C3225   1.427   .     D
C328   H354    1.069   .     S
C328   C3227   1.428   .     D
C329   C331    1.414   .     S
C329   H356    1.070   .     S
C329   C2861   1.413   .     D
C330   C331    1.412   .     S
C331   C332    1.442   .     D
C332   H366    1.070   .     S
C332   C2864   1.415   .     S
C333   O315    1.252   1_655 S
C333   C334    1.454   .     S
C334   C335    1.424   .     S
C334   C3413   1.457   1_655 D
C335   H361    1.069   .     S
C335   C2434   1.421   .     D
C336   C338    1.452   .     S
C336   C339    1.410   .     D
C336   H364    1.070   .     S
C337   C338    1.384   .     S
C338   C342    1.379   .     D
C339   C341    1.442   .     S
C339   H365    1.069   .     S
C340   C341    1.453   .     S
C341   C343    1.435   .     D
C342   C343    1.436   .     S
C342   H362    1.070   .     S
C343   H363    1.069   .     S
C344   H355    1.070   .     S
C344   C3305   1.384   .     D
C345   C347    1.401   .     D
C345   C348    1.388   .     S
C345   H359    1.070   .     S
C346   C347    1.399   .     S
C347   C351    1.404   .     S
C348   C350    1.403   .     D
C348   H360    1.069   .     S
C349   C350    1.422   .     S
C350   C352    1.423   .     S
C351   C352    1.398   .     D
C351   H357    1.069   .     S
C352   H358    1.070   .     S
Cr367  O375    1.885   .     S
Cr367  O1241   1.953   .     S
Cr367  O2165   1.966   .     S
Cr367  O2236   2.050   .     S
Cr367  O3004   2.122   1_556 S
Cr368  O370    1.997   .     S
Cr368  O2472   1.991   .     S
Cr368  O2668   2.036   .     S
Cr368  O2671   2.013   .     S
Cr368  O3211   2.174   .     S
O369   Cr2964  1.973   1_655 S
O369   C3283   1.304   .     D
O370   C3212   1.294   .     D
O371   Cr2962  1.969   .     S
O371   C3214   1.209   .     S
O372   C390    1.303   .     D
O372   Cr2468  1.991   .     S
O373   C390    1.318   .     S
O373   Cr3186  2.099   .     S
O374   C393    1.253   1_554 D
O374   Cr1234  1.953   .     S
O375   C393    1.292   .     S
O376   C397    1.268   .     S
O376   Cr1543  1.965   .     S
O377   C397    1.280   .     D
O377   Cr3015  2.111   .     S
O378   C400    1.297   .     S
O378   Cr3056  2.072   .     S
O379   C400    1.290   .     D
O379   Cr3065  2.052   .     S
O380   Cr2530  2.036   .     S
O380   C3306   1.339   .     S
O381   Cr3065  2.055   .     S
O381   C3307   1.253   .     S
O382   C406    1.263   .     D
O382   Cr3192  1.975   .     S
O383   C406    1.240   .     S
O383   Cr2530  2.014   .     S
O384   C409    1.358   .     D
O384   Cr2220  2.050   .     S
O385   C409    1.303   .     S
O385   Cr3015  2.018   1_556 S
C386   H416    1.069   .     S
C386   C2734   1.409   .     S
C386   C3284   1.444   .     D
C387   C388    1.438   .     S
C387   H413    1.070   .     S
C387   C3213   1.427   .     D
C388   H414    1.069   .     S
C388   C3215   1.428   .     D
C389   C391    1.413   .     S
C389   H417    1.069   .     S
C389   C2737   1.414   .     D
C390   C391    1.413   .     S
C391   C392    1.443   .     D
C392   H427    1.069   .     S
C392   C2740   1.415   .     S
C393   O374    1.253   1_556 D
C393   C394    1.454   .     S
C394   C395    1.425   .     S
C394   C3417   1.457   1_556 D
C395   H422    1.069   .     S
C395   C2247   1.420   .     D
C396   C398    1.452   .     S
C396   C399    1.410   .     D
C396   H425    1.071   .     S
C397   C398    1.385   .     S
C398   C402    1.379   .     D
C399   C401    1.441   .     S
C399   H426    1.069   .     S
C400   C401    1.454   .     S
C401   C403    1.434   .     D
C402   C403    1.436   .     S
C402   H423    1.069   .     S
C403   H424    1.069   .     S
C404   H415    1.070   .     S
C404   C3308   1.384   .     D
C405   C407    1.401   .     S
C405   C408    1.387   .     D
C405   H420    1.070   .     S
C406   C407    1.398   .     S
C407   C411    1.405   .     D
C408   C410    1.402   .     S
C408   H421    1.070   .     S
C409   C410    1.422   .     S
C410   C412    1.423   .     D
C411   C412    1.398   .     S
C411   H418    1.069   .     S
C412   H419    1.071   .     S
Cr428  O436    1.883   .     S
Cr428  F448    2.053   .     S
Cr428  O1304   1.954   .     S
Cr428  O2043   1.966   .     S
Cr428  O2359   2.050   .     S
Cr428  O3002   2.121   1_565 S
Cr429  O431    1.997   .     S
Cr429  F447    1.938   .     S
Cr429  O2480   2.036   .     S
Cr429  O2483   2.014   .     S
Cr429  O2660   1.992   .     S
Cr429  O3217   2.173   .     S
O430   Cr2963  1.973   .     S
O430   C3281   1.304   .     D
O431   C3218   1.294   .     S
O432   C3220   1.209   .     D
O433   C453    1.302   .     S
O433   Cr2657  1.992   .     S
O434   C453    1.318   .     D
O434   Cr3204  2.099   .     S
O435   C456    1.252   1_545 S
O435   Cr1297  1.953   .     S
O436   C456    1.292   .     D
O437   C460    1.268   .     D
O437   Cr1602  1.966   .     S
O438   C460    1.280   .     S
O438   Cr3023  2.112   1_545 S
O439   C463    1.297   .     D
O439   Cr3055  2.071   .     S
O440   C463    1.291   .     S
O440   Cr3064  2.051   .     S
O441   Cr2594  2.036   .     S
O441   C3309   1.339   .     S
O442   Cr3064  2.055   .     S
O442   C3311   1.253   .     S
O443   C470    1.263   .     S
O443   Cr3198  1.975   .     S
O444   C470    1.240   .     D
O444   Cr2594  2.015   .     S
O445   C473    1.358   .     D
O445   Cr2342  2.051   .     S
O446   C473    1.304   .     S
O446   Cr3023  2.019   .     S
C449   H481    1.069   .     S
C449   C2797   1.409   .     D
C449   C3282   1.444   .     S
C450   C451    1.438   .     S
C450   H477    1.071   .     S
C450   C3219   1.426   .     D
C451   H478    1.070   .     S
C451   C3221   1.427   .     D
C452   C454    1.414   .     S
C452   H482    1.069   .     S
C452   C2800   1.414   .     D
C453   C454    1.414   .     S
C454   C455    1.442   .     D
C455   H492    1.070   .     S
C455   C2803   1.415   .     S
C456   O435    1.252   1_565 S
C456   C457    1.455   .     S
C457   C458    1.425   .     S
C457   C3421   1.458   1_565 D
C458   H487    1.069   .     S
C458   C2370   1.420   .     D
C459   C461    1.452   .     D
C459   C462    1.411   .     S
C459   H490    1.070   .     S
C460   C461    1.385   .     S
C461   C465    1.378   .     S
C462   C464    1.442   .     D
C462   H491    1.069   .     S
C463   C464    1.453   .     S
C464   C466    1.434   .     S
C465   C466    1.435   .     D
C465   H488    1.070   .     S
C466   H489    1.070   .     S
C467   C468    1.449   1_565 D
C467   H479    1.069   .     S
C467   C3310   1.390   .     S
C468   C467    1.449   1_545 D
C468   H480    1.069   .     S
C468   C3312   1.383   .     S
C469   C471    1.401   .     S
C469   C472    1.388   .     D
C469   H485    1.070   .     S
C470   C471    1.399   .     S
C471   C475    1.404   .     D
C472   C474    1.403   .     S
C472   H486    1.070   .     S
C473   C474    1.421   .     S
C474   C476    1.423   .     D
C475   C476    1.398   .     S
C475   H483    1.070   .     S
C476   H484    1.070   .     S
Cr493  O500    1.884   .     S
Cr493  O1118   1.953   .     S
Cr493  O1489   1.966   .     S
Cr493  O2915   2.050   .     S
Cr493  O3009   2.121   .     S
Cr494  O495    1.998   .     S
Cr494  F511    1.938   .     S
Cr494  O2283   1.991   .     S
Cr494  O2355   2.036   .     S
Cr494  O2358   2.014   .     S
Cr494  O3199   2.173   .     S
O495   C3200   1.294   .     S
O496   Cr2967  1.968   .     S
O496   C3202   1.210   .     D
O497   C515    1.303   .     D
O497   Cr2280  1.992   .     S
O498   C515    1.317   .     S
O498   Cr3168  2.100   .     S
O499   C519    1.253   .     S
O499   Cr1112  1.952   .     S
O500   C519    1.291   .     D
O501   C523    1.268   .     D
O501   Cr1727  1.966   .     S
O502   C523    1.280   .     S
O502   Cr3027  2.111   .     S
O503   C526    1.297   .     D
O503   Cr3053  2.072   .     S
O504   C526    1.290   .     S
O504   Cr3073  2.052   .     S
O505   Cr2221  2.037   .     S
O505   C3313   1.339   .     S
O506   Cr3073  2.055   .     S
O506   C3315   1.252   .     D
O507   C533    1.264   .     S
O507   Cr3162  1.975   .     S
O508   C533    1.240   .     D
O508   Cr2221  2.014   .     S
O509   C536    1.359   .     S
O509   Cr2899  2.050   .     S
O510   C536    1.303   .     D
O510   Cr3027  2.018   .     S
C512   C513    1.436   .     S
C512   H540    1.070   .     S
C512   C3201   1.428   .     D
C513   H541    1.070   .     S
C513   C3203   1.428   .     D
C514   C516    1.414   .     S
C514   H544    1.069   .     S
C514   C2614   1.414   .     D
C515   C516    1.413   .     S
C516   C517    1.442   .     D
C517   H555    1.070   .     S
C517   C2617   1.415   .     S
C518   C520    1.457   .     S
C518   H549    1.069   .     S
C518   C2924   1.450   .     D
C519   C520    1.455   .     S
C520   C521    1.425   .     D
C521   H550    1.070   .     S
C521   C2927   1.420   .     S
C522   C524    1.452   .     D
C522   C525    1.411   .     S
C522   H553    1.070   .     S
C523   C524    1.384   .     S
C524   C528    1.379   .     S
C525   C527    1.442   .     D
C525   H554    1.069   .     S
C526   C527    1.453   .     S
C527   C529    1.434   .     S
C528   C529    1.435   .     D
C528   H551    1.070   .     S
C529   H552    1.069   .     S
C530   C531    1.449   .     S
C530   H542    1.069   .     S
C530   C3314   1.391   .     D
C531   H543    1.069   .     S
C531   C3316   1.384   .     D
C532   C534    1.401   .     S
C532   C535    1.388   .     D
C532   H547    1.069   .     S
C533   C534    1.399   .     S
C534   C538    1.405   .     D
C535   C537    1.404   .     S
C535   H548    1.069   .     S
C536   C537    1.422   .     S
C537   C539    1.423   .     D
C538   C539    1.398   .     S
C538   H545    1.069   .     S
C539   H546    1.070   .     S
Cr556  O563    1.884   .     S
Cr556  O1181   1.953   .     S
Cr556  O1611   1.965   .     S
Cr556  O2795   2.050   .     S
Cr556  O3007   2.121   1_565 S
Cr557  O558    1.997   .     S
Cr557  F574    1.938   .     S
Cr557  O2291   2.037   .     S
Cr557  O2294   2.014   .     S
Cr557  O2347   1.992   .     S
Cr557  O3205   2.173   .     S
O558   C3206   1.294   .     D
O559   Cr2968  1.968   .     S
O559   C3208   1.209   .     S
O560   C578    1.304   .     S
O560   Cr2343  1.992   .     S
O561   C578    1.317   .     D
O561   Cr3174  2.100   .     S
O562   C581    1.253   1_545 S
O562   Cr1175  1.953   .     S
O563   C581    1.292   .     D
O564   C585    1.269   .     S
O564   Cr1910  1.966   .     S
O565   C585    1.280   .     D
O565   Cr3029  2.112   .     S
O566   C588    1.296   .     D
O566   Cr3052  2.072   .     S
O567   C588    1.290   .     S
O567   Cr3072  2.052   .     S
O568   Cr2406  2.036   .     S
O568   C3317   1.339   .     S
O569   Cr3072  2.055   .     S
O569   C3318   1.253   .     S
O570   C594    1.263   .     D
O570   Cr3180  1.976   .     S
O571   C594    1.241   .     S
O571   Cr2406  2.014   .     S
O572   C597    1.358   .     D
O572   Cr2778  2.050   .     S
O573   C597    1.303   .     S
O573   Cr3029  2.019   1_565 S
C575   C576    1.436   .     S
C575   H601    1.070   .     S
C575   C3207   1.427   .     D
C576   H602    1.069   .     S
C576   C3209   1.428   .     D
C577   C579    1.414   .     D
C577   H604    1.069   .     S
C577   C2676   1.413   .     S
C578   C579    1.412   .     S
C579   C580    1.443   .     S
C580   H614    1.069   .     S
C580   C2679   1.415   .     D
C581   O562    1.253   1_565 S
C581   C582    1.455   .     S
C582   C583    1.425   .     S
C582   C3441   1.458   1_565 D
C583   H609    1.069   .     S
C583   C2806   1.420   .     D
C584   C586    1.453   .     S
C584   C587    1.410   .     D
C584   H612    1.070   .     S
C585   C586    1.383   .     S
C586   C590    1.379   .     D
C587   C589    1.442   .     S
C587   H613    1.069   .     S
C588   C589    1.453   .     S
C589   C591    1.435   .     D
C590   C591    1.435   .     S
C590   H610    1.069   .     S
C591   H611    1.070   .     S
C592   H603    1.069   .     S
C592   C3319   1.384   .     S
C593   C595    1.402   .     S
C593   C596    1.387   .     D
C593   H607    1.070   .     S
C594   C595    1.398   .     S
C595   C599    1.404   .     D
C596   C598    1.403   .     S
C596   H608    1.070   .     S
C597   C598    1.421   .     S
C598   C600    1.423   .     D
C599   C600    1.398   .     S
C599   H605    1.070   .     S
C600   H606    1.071   .     S
Cr615  O623    1.883   .     S
Cr615  O1056   1.953   .     S
Cr615  O1672   1.966   .     S
Cr615  O2855   2.050   .     S
Cr615  O3014   2.121   .     S
Cr616  O618    1.997   .     S
Cr616  O2232   2.036   .     S
Cr616  O2235   2.014   .     S
Cr616  O2410   1.992   .     S
Cr616  O3193   2.173   .     S
O617   Cr2968  1.973   1_565 S
O617   C3277   1.304   .     D
O618   C3194   1.294   .     D
O619   Cr2966  1.968   .     S
O619   C3196   1.209   .     S
O620   C638    1.303   .     D
O620   Cr2406  1.991   .     S
O621   C638    1.317   .     S
O621   Cr3180  2.100   .     S
O622   C641    1.253   1_455 S
O622   Cr1049  1.953   .     S
O623   C641    1.292   .     D
O624   C645    1.269   .     S
O624   Cr1789  1.965   .     S
O625   C645    1.280   .     D
O625   Cr3025  2.112   1_455 S
O626   C648    1.296   .     S
O626   Cr3052  2.071   .     S
O627   C648    1.290   .     D
O627   Cr3070  2.051   .     S
O628   Cr2343  2.036   .     S
O628   C3320   1.338   .     D
O629   Cr3070  2.055   .     S
O629   C3321   1.252   .     D
O630   C654    1.263   .     D
O630   Cr3174  1.976   .     S
O631   C654    1.240   .     S
O631   Cr2343  2.014   .     S
O632   C657    1.358   .     D
O632   Cr2839  2.050   .     S
O633   C657    1.304   .     S
O633   Cr3025  2.018   .     S
C634   H664    1.069   .     S
C634   C2549   1.409   .     D
C634   C3278   1.444   .     S
C635   C636    1.438   .     D
C635   H661    1.070   .     S
C635   C3195   1.426   .     S
C636   H662    1.069   .     S
C636   C3197   1.428   .     S
C637   C639    1.413   .     D
C637   H665    1.070   .     S
C637   C2552   1.414   .     S
C638   C639    1.413   .     S
C639   C640    1.442   .     S
C640   H675    1.070   .     S
C640   C2555   1.416   .     D
C641   O622    1.253   1_655 S
C641   C642    1.454   .     S
C642   C643    1.425   .     S
C642   C3445   1.457   1_655 D
C643   H670    1.069   .     S
C643   C2867   1.420   .     D
C644   C646    1.452   .     S
C644   C647    1.410   .     D
C644   H673    1.070   .     S
C645   C646    1.385   .     S
C646   C650    1.378   .     D
C647   C649    1.442   .     S
C647   H674    1.069   .     S
C648   C649    1.454   .     S
C649   C651    1.433   .     D
C650   C651    1.436   .     S
C650   H671    1.070   .     S
C651   H672    1.069   .     S
C652   H663    1.070   .     S
C652   C3322   1.383   .     D
C653   C655    1.401   .     D
C653   C656    1.387   .     S
C653   H668    1.069   .     S
C654   C655    1.400   .     S
C655   C659    1.405   .     S
C656   C658    1.402   .     D
C656   H669    1.071   .     S
C657   C658    1.422   .     S
C658   C660    1.424   .     S
C659   C660    1.397   .     D
C659   H666    1.070   .     S
C660   H667    1.070   .     S
Cr676  O684    1.883   .     S
Cr676  F695    2.052   .     S
Cr676  O995    1.953   .     S
Cr676  O1551   1.966   .     S
Cr676  O2731   2.051   .     S
Cr676  O3012   2.122   1_556 S
Cr677  O679    1.997   .     S
Cr677  O2224   1.992   .     S
Cr677  O2418   2.036   .     S
Cr677  O2421   2.013   .     S
Cr677  O3187   2.173   .     S
O678   Cr2967  1.972   .     S
O678   C3279   1.304   .     S
O679   C3188   1.294   .     D
O680   C3190   1.210   .     D
O681   C700    1.302   .     D
O681   Cr2221  1.992   .     S
O682   C700    1.318   .     S
O682   Cr3162  2.100   .     S
O683   C703    1.253   1_554 D
O683   Cr988   1.952   .     S
O684   C703    1.292   .     S
O685   C707    1.269   .     D
O685   Cr1848  1.965   .     S
O686   C707    1.280   .     S
O686   Cr3032  2.112   .     S
O687   C710    1.297   .     D
O687   Cr3053  2.070   .     S
O688   C710    1.290   .     S
O688   Cr3069  2.052   .     S
O689   Cr2280  2.036   .     S
O689   C3323   1.339   .     D
O690   Cr3069  2.055   .     S
O690   C3325   1.252   .     D
O691   C717    1.263   .     D
O691   Cr3168  1.976   .     S
O692   C717    1.241   .     S
O692   Cr2280  2.014   .     S
O693   C720    1.358   .     S
O693   Cr2714  2.050   .     S
O694   C720    1.303   .     D
O694   Cr3032  2.019   1_556 S
C696   H728    1.069   .     S
C696   C2487   1.409   .     S
C696   C3280   1.444   .     D
C697   C698    1.437   .     S
C697   H724    1.071   .     S
C697   C3189   1.426   .     D
C698   H725    1.069   .     S
C698   C3191   1.428   .     D
C699   C701    1.413   .     S
C699   H729    1.069   .     S
C699   C2490   1.414   .     D
C700   C701    1.413   .     S
C701   C702    1.443   .     D
C702   H739    1.069   .     S
C702   C2493   1.415   .     S
C703   O683    1.253   1_556 D
C703   C704    1.454   .     S
C704   C705    1.425   .     S
C704   C3449   1.458   1_556 D
C705   H734    1.069   .     S
C705   C2743   1.420   .     D
C706   C708    1.452   .     D
C706   C709    1.410   .     S
C706   H737    1.070   .     S
C707   C708    1.385   .     S
C708   C712    1.379   .     S
C709   C711    1.441   .     D
C709   H738    1.069   .     S
C710   C711    1.454   .     S
C711   C713    1.435   .     S
C712   C713    1.435   .     D
C712   H735    1.070   .     S
C713   H736    1.069   .     S
C714   C715    1.448   1_556 S
C714   H726    1.070   .     S
C714   C3324   1.390   .     D
C715   C714    1.448   1_554 S
C715   H727    1.069   .     S
C715   C3326   1.384   .     D
C716   C718    1.401   .     S
C716   C719    1.388   .     D
C716   H732    1.070   .     S
C717   C718    1.399   .     S
C718   C722    1.405   .     D
C719   C721    1.403   .     S
C719   H733    1.070   .     S
C720   C721    1.422   .     S
C721   C723    1.423   .     D
C722   C723    1.398   .     S
C722   H730    1.068   .     S
C723   H731    1.070   .     S
Cr740  O747    1.884   .     S
Cr740  F758    2.053   .     S
Cr740  O1865   2.051   .     S
Cr740  O2476   1.966   .     S
Cr740  O2990   2.122   .     S
Cr741  O742    1.997   .     S
Cr741  O1985   2.036   .     S
Cr741  O1988   2.014   .     S
Cr741  O2161   1.992   .     S
Cr741  O3097   2.174   .     S
O742   C3098   1.295   .     D
O743   Cr2983  1.967   .     S
O743   C3100   1.210   .     S
O744   C762    1.303   .     D
O744   Cr2157  1.992   .     S
O745   C762    1.318   .     S
O745   Cr3156  2.100   .     S
O746   C765    1.253   1_556 S
O747   C765    1.292   .     D
O748   C769    1.268   .     D
O748   Cr2714  1.965   .     S
O749   C769    1.281   .     S
O749   Cr3032  2.111   1_556 S
O750   C772    1.296   .     D
O750   Cr3042  2.071   .     S
O751   C772    1.290   .     S
O751   Cr3078  2.052   .     S
O752   Cr2095  2.036   .     S
O752   C3327   1.338   .     D
O753   Cr3078  2.055   .     S
O753   C3328   1.253   .     S
O754   C778    1.263   .     D
O754   Cr3150  1.976   .     S
O755   C778    1.241   .     S
O755   Cr2095  2.014   .     S
O756   C781    1.358   .     D
O756   Cr1848  2.050   .     S
O757   C781    1.304   .     S
O757   Cr3032  2.017   .     S
C759   C760    1.437   .     S
C759   H785    1.070   .     S
C759   C3099   1.426   .     D
C760   H786    1.069   .     S
C760   C3101   1.428   .     D
C761   C763    1.414   .     S
C761   H788    1.070   .     S
C761   C1564   1.414   .     D
C762   C763    1.413   .     S
C763   C764    1.441   .     D
C764   H798    1.070   .     S
C764   C1567   1.416   .     S
C765   O746    1.253   1_554 S
C765   C766    1.454   .     S
C766   C767    1.424   .     S
C766   C3469   1.458   1_554 D
C767   H793    1.070   .     S
C767   C1877   1.420   .     D
C768   C770    1.452   .     S
C768   C771    1.410   .     D
C768   H796    1.070   .     S
C769   C770    1.384   .     S
C770   C774    1.379   .     D
C771   C773    1.441   .     S
C771   H797    1.069   .     S
C772   C773    1.454   .     S
C773   C775    1.435   .     D
C774   C775    1.436   .     S
C774   H794    1.070   .     S
C775   H795    1.069   .     S
C776   H787    1.069   .     S
C776   C3329   1.383   .     S
C777   C779    1.401   .     S
C777   C780    1.388   .     D
C777   H791    1.070   .     S
C778   C779    1.399   .     S
C779   C783    1.404   .     D
C780   C782    1.404   .     S
C780   H792    1.070   .     S
C781   C782    1.421   .     S
C782   C784    1.423   .     D
C783   C784    1.398   .     S
C783   H789    1.068   .     S
C784   H790    1.070   .     S
Cr799  O806    1.884   .     S
Cr799  F817    2.053   .     S
Cr799  O1743   2.051   .     S
Cr799  O2601   1.966   .     S
Cr799  O2992   2.122   .     S
Cr800  O801    1.998   .     S
Cr800  O1977   1.991   .     S
Cr800  O2169   2.036   .     S
Cr800  O2172   2.014   .     S
Cr800  O3091   2.173   .     S
O801   C3092   1.293   .     D
O802   Cr2985  1.968   .     S
O802   C3094   1.209   .     D
O803   C821    1.303   .     D
O803   Cr1974  1.992   .     S
O804   C821    1.317   .     S
O804   Cr3138  2.100   .     S
O805   C825    1.253   .     D
O806   C825    1.292   .     S
O807   C829    1.268   .     D
O807   Cr2899  1.965   .     S
O808   C829    1.280   .     S
O808   Cr3027  2.111   .     S
O809   C832    1.296   .     D
O809   Cr3043  2.071   .     S
O810   C832    1.291   .     S
O810   Cr3076  2.051   .     S
O811   Cr2036  2.036   .     S
O811   C3330   1.339   .     S
O812   Cr3076  2.055   .     S
O812   C3332   1.252   .     D
O813   C839    1.263   .     D
O813   Cr3144  1.975   .     S
O814   C839    1.241   .     S
O814   Cr2036  2.014   .     S
O815   C842    1.358   .     S
O815   Cr1727  2.051   .     S
O816   C842    1.304   .     D
O816   Cr3027  2.018   .     S
C818   C819    1.437   .     S
C818   H846    1.070   .     S
C818   C3093   1.426   .     D
C819   H847    1.069   .     S
C819   C3095   1.428   .     D
C820   C822    1.414   .     S
C820   H850    1.070   .     S
C820   C1501   1.413   .     D
C821   C822    1.413   .     S
C822   C823    1.442   .     D
C823   H861    1.070   .     S
C823   C1504   1.415   .     S
C824   C826    1.457   .     S
C824   H855    1.070   .     S
C824   C1751   1.451   .     D
C825   C826    1.454   .     S
C826   C827    1.425   .     D
C827   H856    1.069   .     S
C827   C1754   1.420   .     S
C828   C830    1.452   .     S
C828   C831    1.411   .     D
C828   H859    1.069   .     S
C829   C830    1.384   .     S
C830   C834    1.380   .     D
C831   C833    1.441   .     S
C831   H860    1.070   .     S
C832   C833    1.454   .     S
C833   C835    1.434   .     D
C834   C835    1.435   .     S
C834   H857    1.069   .     S
C835   H858    1.069   .     S
C836   C837    1.449   .     D
C836   H848    1.069   .     S
C836   C3331   1.390   .     S
C837   H849    1.070   .     S
C837   C3333   1.383   .     S
C838   C840    1.401   .     S
C838   C841    1.388   .     D
C838   H853    1.070   .     S
C839   C840    1.399   .     S
C840   C844    1.404   .     D
C841   C843    1.403   .     S
C841   H854    1.070   .     S
C842   C843    1.422   .     S
C843   C845    1.423   .     D
C844   C845    1.397   .     S
C844   H851    1.069   .     S
C845   H852    1.070   .     S
Cr862  O870    1.883   .     S
Cr862  O1927   2.050   .     S
Cr862  O2664   1.966   .     S
Cr862  O2996   2.121   1_545 S
Cr863  O865    1.997   .     S
Cr863  F881    1.938   .     S
Cr863  O2039   1.992   .     S
Cr863  O2107   2.036   .     S
Cr863  O2110   2.014   .     S
Cr863  O3103   2.173   .     S
O864   Cr2985  1.974   .     S
O864   C3263   1.303   .     S
O865   C3104   1.294   .     S
O866   Cr2982  1.968   .     S
O866   C3106   1.209   .     S
O867   C886    1.303   .     D
O867   Cr2036  1.992   .     S
O868   C886    1.317   .     S
O868   Cr3144  2.101   .     S
O869   C889    1.252   1_565 S
O870   C889    1.292   .     D
O871   C893    1.268   .     D
O871   Cr2778  1.966   .     S
O872   C893    1.280   .     S
O872   Cr3029  2.111   1_565 S
O873   C896    1.296   .     D
O873   Cr3043  2.071   .     S
O874   C896    1.291   .     S
O874   Cr3075  2.051   .     S
O875   Cr1974  2.036   .     S
O875   C3334   1.339   .     D
O876   Cr3075  2.055   .     S
O876   C3336   1.253   .     S
O877   C903    1.263   .     D
O877   Cr3138  1.975   .     S
O878   C903    1.240   .     S
O878   Cr1974  2.014   .     S
O879   C906    1.358   .     D
O879   Cr1910  2.051   .     S
O880   C906    1.303   .     S
O880   Cr3029  2.018   .     S
C882   H914    1.068   .     S
C882   C1621   1.409   .     D
C882   C3264   1.444   .     S
C883   C884    1.437   .     D
C883   H910    1.071   .     S
C883   C3105   1.427   .     S
C884   H911    1.068   .     S
C884   C3107   1.428   .     S
C885   C887    1.414   .     D
C885   H915    1.069   .     S
C885   C1624   1.413   .     S
C886   C887    1.414   .     S
C887   C888    1.442   .     S
C888   H925    1.069   .     S
C888   C1627   1.415   .     D
C889   O869    1.252   1_545 S
C889   C890    1.454   .     S
C890   C891    1.425   .     S
C890   C3473   1.457   1_545 D
C891   H920    1.069   .     S
C891   C1938   1.420   .     D
C892   C894    1.453   .     D
C892   C895    1.410   .     S
C892   H923    1.070   .     S
C893   C894    1.384   .     S
C894   C898    1.380   .     S
C895   C897    1.442   .     D
C895   H924    1.069   .     S
C896   C897    1.454   .     S
C897   C899    1.434   .     S
C898   C899    1.435   .     D
C898   H921    1.069   .     S
C899   H922    1.069   .     S
C900   C901    1.449   1_545 S
C900   H912    1.068   .     S
C900   C3335   1.390   .     D
C901   C900    1.449   1_565 S
C901   H913    1.070   .     S
C901   C3337   1.383   .     D
C902   C904    1.402   .     D
C902   C905    1.388   .     S
C902   H918    1.069   .     S
C903   C904    1.399   .     S
C904   C908    1.403   .     S
C905   C907    1.403   .     D
C905   H919    1.069   .     S
C906   C907    1.422   .     S
C907   C909    1.422   .     S
C908   C909    1.398   .     D
C908   H916    1.069   .     S
C909   H917    1.070   .     S
Cr926  O934    1.884   .     S
Cr926  F945    2.053   .     S
Cr926  O1805   2.050   .     S
Cr926  O2538   1.966   .     S
Cr926  O2994   2.121   .     S
Cr927  O929    1.997   .     S
Cr927  O2047   2.036   .     S
Cr927  O2050   2.014   .     S
Cr927  O2099   1.992   .     S
Cr927  O3109   2.173   .     S
O928   Cr2983  1.973   1_554 S
O928   C3261   1.303   .     D
O929   C3110   1.294   .     D
O930   Cr2987  1.968   .     S
O930   C3112   1.210   .     D
O931   C950    1.304   .     S
O931   Cr2095  1.991   .     S
O932   C950    1.317   .     D
O932   Cr3150  2.099   .     S
O933   C953    1.253   1_655 S
O934   C953    1.292   .     D
O935   C957    1.269   .     D
O935   Cr2839  1.965   .     S
O936   C957    1.280   .     S
O936   Cr3025  2.111   .     S
O937   C960    1.297   .     D
O937   Cr3042  2.071   .     S
O938   C960    1.290   .     S
O938   Cr3074  2.052   .     S
O939   Cr2157  2.037   .     S
O939   C3338   1.339   .     S
O940   Cr3074  2.056   .     S
O940   C3339   1.253   .     D
O941   C966    1.263   .     D
O941   Cr3156  1.975   .     S
O942   C966    1.240   .     S
O942   Cr2157  2.015   .     S
O943   C969    1.358   .     S
O943   Cr1789  2.051   .     S
O944   C969    1.303   .     D
O944   Cr3025  2.018   1_455 S
C946   H976    1.069   .     S
C946   C1683   1.409   .     S
C946   C3262   1.445   .     D
C947   C948    1.437   .     S
C947   H973    1.070   .     S
C947   C3111   1.427   .     D
C948   H974    1.069   .     S
C948   C3113   1.428   .     D
C949   C951    1.414   .     S
C949   H977    1.069   .     S
C949   C1686   1.414   .     D
C950   C951    1.413   .     S
C951   C952    1.442   .     D
C952   H987    1.070   .     S
C952   C1689   1.414   .     S
C953   O933    1.253   1_455 S
C953   C954    1.454   .     S
C954   C955    1.425   .     S
C954   C3477   1.457   1_455 D
C955   H982    1.070   .     S
C955   C1816   1.420   .     D
C956   C958    1.452   .     D
C956   C959    1.411   .     S
C956   H985    1.070   .     S
C957   C958    1.384   .     S
C958   C962    1.379   .     S
C959   C961    1.441   .     D
C959   H986    1.069   .     S
C960   C961    1.453   .     S
C961   C963    1.433   .     S
C962   C963    1.435   .     D
C962   H983    1.069   .     S
C963   H984    1.070   .     S
C964   H975    1.069   .     S
C964   C3340   1.384   .     D
C965   C967    1.400   .     S
C965   C968    1.388   .     D
C965   H980    1.070   .     S
C966   C967    1.399   .     S
C967   C971    1.405   .     D
C968   C970    1.403   .     S
C968   H981    1.070   .     S
C969   C970    1.422   .     S
C970   C972    1.423   .     D
C971   C972    1.398   .     S
C971   H978    1.070   .     S
C972   H979    1.071   .     S
Cr988  O996    1.883   .     S
Cr988  O1559   2.051   .     S
Cr988  O2723   1.966   .     S
Cr988  O3012   2.121   .     S
Cr989  O991    1.997   .     S
Cr989  O1801   2.035   .     S
Cr989  O1804   2.014   .     S
Cr989  O1853   1.992   .     S
Cr989  O3157   2.174   .     S
O990   Cr2977  1.973   1_545 S
O990   C3269   1.303   .     D
O991   C3158   1.294   .     S
O992   Cr2976  1.967   .     S
O992   C3160   1.210   .     D
O993   C1011   1.303   .     D
O993   Cr1849  1.991   .     S
O994   C1011   1.318   .     S
O994   Cr3126  2.099   .     S
O995   C1014   1.253   1_556 D
O996   C1014   1.292   .     S
O997   C1018   1.268   .     D
O997   Cr2220  1.966   .     S
O998   C1018   1.280   .     S
O998   Cr3015  2.111   1_556 S
O999   C1021   1.296   .     D
O999   Cr3046  2.072   .     S
O1000  C1021   1.290   .     S
O1000  Cr3083  2.052   .     S
O1001  Cr1911  2.036   .     S
O1001  C3341   1.339   .     D
O1002  Cr3083  2.055   .     S
O1002  C3342   1.253   .     S
O1003  C1027   1.263   .     D
O1003  Cr3132  1.976   .     S
O1004  C1027   1.240   .     S
O1004  Cr1911  2.014   .     S
O1005  C1030   1.358   .     S
O1005  Cr1543  2.051   .     S
O1006  C1030   1.304   .     D
O1006  Cr3015  2.018   .     S
C1007  H1037   1.068   .     S
C1007  C2176   1.409   .     D
C1007  C3270   1.444   .     S
C1008  C1009   1.437   .     D
C1008  H1034   1.071   .     S
C1008  C3159   1.426   .     S
C1009  H1035   1.070   .     S
C1009  C3161   1.428   .     S
C1010  C1012   1.414   .     D
C1010  H1038   1.069   .     S
C1010  C2179   1.414   .     S
C1011  C1012   1.414   .     S
C1012  C1013   1.442   .     S
C1013  H1048   1.070   .     S
C1013  C2182   1.416   .     D
C1014  O995    1.253   1_554 D
C1014  C1015   1.454   .     S
C1015  C1016   1.424   .     S
C1015  C3481   1.458   1_554 D
C1016  H1043   1.070   .     S
C1016  C1570   1.420   .     D
C1017  C1019   1.452   .     S
C1017  C1020   1.410   .     D
C1017  H1046   1.069   .     S
C1018  C1019   1.385   .     S
C1019  C1023   1.379   .     D
C1020  C1022   1.442   .     S
C1020  H1047   1.070   .     S
C1021  C1022   1.454   .     S
C1022  C1024   1.434   .     D
C1023  C1024   1.436   .     S
C1023  H1044   1.069   .     S
C1024  H1045   1.069   .     S
C1025  H1036   1.069   .     S
C1025  C3343   1.383   .     D
C1026  C1028   1.402   .     S
C1026  C1029   1.388   .     D
C1026  H1041   1.070   .     S
C1027  C1028   1.399   .     S
C1028  C1032   1.404   .     D
C1029  C1031   1.403   .     S
C1029  H1042   1.070   .     S
C1030  C1031   1.421   .     S
C1031  C1033   1.423   .     D
C1032  C1033   1.398   .     S
C1032  H1039   1.069   .     S
C1033  H1040   1.071   .     S
Cr1049 O1057   1.884   .     S
Cr1049 O1680   2.051   .     S
Cr1049 O2847   1.966   .     S
Cr1049 O3014   2.121   1_455 S
Cr1050 O1052   1.996   .     S
Cr1050 O1793   1.991   .     S
Cr1050 O1861   2.036   .     S
Cr1050 O1864   2.015   .     S
Cr1050 O3151   2.174   .     S
O1051  Cr2975  1.973   .     S
O1051  C3271   1.304   .     S
O1052  C3152   1.295   .     D
O1053  C3154   1.209   .     D
O1054  C1072   1.303   .     D
O1054  Cr1790  1.992   .     S
O1055  C1072   1.319   .     S
O1055  Cr3120  2.099   .     S
O1056  C1075   1.253   1_655 S
O1057  C1075   1.292   .     D
O1058  C1079   1.268   .     S
O1058  Cr2405  1.966   .     S
O1059  C1079   1.280   .     D
O1059  Cr3020  2.111   1_655 S
O1060  C1082   1.296   .     S
O1060  Cr3048  2.071   .     S
O1061  C1082   1.291   .     D
O1061  Cr3082  2.051   .     S
O1062  Cr1728  2.036   .     S
O1062  C3344   1.340   .     D
O1063  Cr3082  2.055   .     S
O1063  C3346   1.252   .     D
O1064  C1089   1.263   .     D
O1064  Cr3114  1.976   .     S
O1065  C1089   1.240   .     S
O1065  Cr1728  2.014   .     S
O1066  C1092   1.358   .     S
O1066  Cr1663  2.051   .     S
O1067  C1092   1.304   .     D
O1067  Cr3020  2.018   .     S
C1068  H1100   1.069   .     S
C1068  C2114   1.409   .     S
C1068  C3272   1.444   .     D
C1069  C1070   1.437   .     D
C1069  H1096   1.070   .     S
C1069  C3153   1.426   .     S
C1070  H1097   1.069   .     S
C1070  C3155   1.428   .     S
C1071  C1073   1.414   .     D
C1071  H1101   1.069   .     S
C1071  C2117   1.413   .     S
C1072  C1073   1.413   .     S
C1073  C1074   1.442   .     S
C1074  H1111   1.070   .     S
C1074  C2120   1.414   .     D
C1075  O1056   1.253   1_455 S
C1075  C1076   1.454   .     S
C1076  C1077   1.425   .     S
C1076  C3485   1.457   1_455 D
C1077  H1106   1.069   .     S
C1077  C1692   1.421   .     D
C1078  C1080   1.452   .     D
C1078  C1081   1.411   .     S
C1078  H1109   1.069   .     S
C1079  C1080   1.383   .     S
C1080  C1084   1.379   .     S
C1081  C1083   1.441   .     D
C1081  H1110   1.070   .     S
C1082  C1083   1.454   .     S
C1083  C1085   1.434   .     S
C1084  C1085   1.436   .     D
C1084  H1107   1.069   .     S
C1085  H1108   1.069   .     S
C1086  C1087   1.448   1_455 S
C1086  H1098   1.069   .     S
C1086  C3345   1.391   .     D
C1087  C1086   1.448   1_655 S
C1087  H1099   1.070   .     S
C1087  C3347   1.384   .     D
C1088  C1090   1.401   .     S
C1088  C1091   1.388   .     D
C1088  H1104   1.070   .     S
C1089  C1090   1.399   .     S
C1090  C1094   1.404   .     D
C1091  C1093   1.404   .     S
C1091  H1105   1.069   .     S
C1092  C1093   1.421   .     S
C1093  C1095   1.424   .     D
C1094  C1095   1.398   .     S
C1094  H1102   1.070   .     S
C1095  H1103   1.070   .     S
Cr1112 O1119   1.883   .     S
Cr1112 O1497   2.051   .     S
Cr1112 O2907   1.966   .     S
Cr1112 O3009   2.121   .     S
Cr1113 O1114   1.997   .     S
Cr1113 F1130   1.938   .     S
Cr1113 O1731   1.992   .     S
Cr1113 O1923   2.036   .     S
Cr1113 O1926   2.014   .     S
Cr1113 O3139   2.174   .     S
O1114  C3140   1.294   .     D
O1115  Cr2975  1.968   .     S
O1115  C3142   1.209   .     S
O1116  C1134   1.303   .     S
O1116  Cr1728  1.992   .     S
O1117  C1134   1.317   .     D
O1117  Cr3114  2.101   .     S
O1118  C1138   1.253   .     D
O1119  C1138   1.292   .     S
O1120  C1142   1.268   .     S
O1120  Cr2279  1.966   .     S
O1121  C1142   1.280   .     D
O1121  Cr3018  2.112   .     S
O1122  C1145   1.296   .     D
O1122  Cr3048  2.071   .     S
O1123  C1145   1.290   .     S
O1123  Cr3081  2.053   .     S
O1124  Cr1790  2.036   .     S
O1124  C3348   1.339   .     D
O1125  Cr3081  2.056   .     S
O1125  C3350   1.253   .     S
O1126  C1152   1.263   .     S
O1126  Cr3120  1.975   .     S
O1127  C1152   1.240   .     D
O1127  Cr1790  2.014   .     S
O1128  C1155   1.357   .     D
O1128  Cr1481  2.051   .     S
O1129  C1155   1.304   .     S
O1129  Cr3018  2.018   .     S
C1131  C1132   1.437   .     D
C1131  H1159   1.071   .     S
C1131  C3141   1.426   .     S
C1132  H1160   1.069   .     S
C1132  C3143   1.428   .     S
C1133  C1135   1.413   .     S
C1133  H1163   1.070   .     S
C1133  C1993   1.413   .     D
C1134  C1135   1.414   .     S
C1135  C1136   1.442   .     D
C1136  H1174   1.070   .     S
C1136  C1996   1.415   .     S
C1137  C1139   1.457   .     S
C1137  H1168   1.069   .     S
C1137  C1505   1.451   .     D
C1138  C1139   1.455   .     S
C1139  C1140   1.424   .     D
C1140  H1169   1.069   .     S
C1140  C1508   1.421   .     S
C1141  C1143   1.452   .     S
C1141  C1144   1.410   .     D
C1141  H1172   1.070   .     S
C1142  C1143   1.384   .     S
C1143  C1147   1.379   .     D
C1144  C1146   1.441   .     S
C1144  H1173   1.069   .     S
C1145  C1146   1.454   .     S
C1146  C1148   1.434   .     D
C1147  C1148   1.436   .     S
C1147  H1170   1.069   .     S
C1148  H1171   1.069   .     S
C1149  C1150   1.448   .     S
C1149  H1161   1.069   .     S
C1149  C3349   1.391   .     D
C1150  H1162   1.070   .     S
C1150  C3351   1.383   .     D
C1151  C1153   1.401   .     S
C1151  C1154   1.388   .     D
C1151  H1166   1.069   .     S
C1152  C1153   1.399   .     S
C1153  C1157   1.403   .     D
C1154  C1156   1.402   .     S
C1154  H1167   1.070   .     S
C1155  C1156   1.422   .     S
C1156  C1158   1.423   .     D
C1157  C1158   1.398   .     S
C1157  H1164   1.069   .     S
C1158  H1165   1.070   .     S
Cr1175 O1182   1.884   .     S
Cr1175 O1619   2.050   .     S
Cr1175 O2787   1.965   .     S
Cr1175 O3007   2.121   .     S
Cr1176 O1177   1.997   .     S
Cr1176 F1193   1.937   .     S
Cr1176 O1739   2.036   .     S
Cr1176 O1742   2.015   .     S
Cr1176 O1915   1.991   .     S
Cr1176 O3145   2.174   .     S
O1177  C3146   1.294   .     D
O1178  Cr2977  1.968   .     S
O1178  C3148   1.208   .     D
O1179  C1197   1.303   .     D
O1179  Cr1911  1.991   .     S
O1180  C1197   1.318   .     S
O1180  Cr3132  2.099   .     S
O1181  C1200   1.253   1_565 S
O1182  C1200   1.292   .     D
O1183  C1204   1.269   .     D
O1183  Cr2342  1.965   .     S
O1184  C1204   1.280   .     S
O1184  Cr3023  2.112   .     S
O1185  C1207   1.297   .     S
O1185  Cr3046  2.070   .     S
O1186  C1207   1.291   .     D
O1186  Cr3080  2.052   .     S
O1187  Cr1849  2.037   .     S
O1187  C3352   1.339   .     D
O1188  Cr3080  2.055   .     S
O1188  C3353   1.252   .     D
O1189  C1213   1.263   .     D
O1189  Cr3126  1.976   .     S
O1190  C1213   1.240   .     S
O1190  Cr1849  2.014   .     S
O1191  C1216   1.358   .     D
O1191  Cr1602  2.050   .     S
O1192  C1216   1.303   .     S
O1192  Cr3023  2.018   1_545 S
C1194  C1195   1.436   .     S
C1194  H1220   1.070   .     S
C1194  C3147   1.427   .     D
C1195  H1221   1.069   .     S
C1195  C3149   1.428   .     D
C1196  C1198   1.413   .     D
C1196  H1223   1.069   .     S
C1196  C2056   1.413   .     S
C1197  C1198   1.413   .     S
C1198  C1199   1.442   .     S
C1199  H1233   1.070   .     S
C1199  C2059   1.415   .     D
C1200  O1181   1.253   1_545 S
C1200  C1201   1.454   .     S
C1201  C1202   1.425   .     S
C1201  C3505   1.458   1_545 D
C1202  H1228   1.070   .     S
C1202  C1630   1.420   .     D
C1203  C1205   1.453   .     D
C1203  C1206   1.410   .     S
C1203  H1231   1.070   .     S
C1204  C1205   1.384   .     S
C1205  C1209   1.379   .     S
C1206  C1208   1.441   .     D
C1206  H1232   1.070   .     S
C1207  C1208   1.453   .     S
C1208  C1210   1.434   .     S
C1209  C1210   1.435   .     D
C1209  H1229   1.069   .     S
C1210  H1230   1.070   .     S
C1211  H1222   1.070   .     S
C1211  C3354   1.384   .     S
C1212  C1214   1.400   .     S
C1212  C1215   1.388   .     D
C1212  H1226   1.070   .     S
C1213  C1214   1.400   .     S
C1214  C1218   1.404   .     D
C1215  C1217   1.403   .     S
C1215  H1227   1.070   .     S
C1216  C1217   1.421   .     S
C1217  C1219   1.423   .     D
C1218  C1219   1.398   .     S
C1218  H1224   1.070   .     S
C1219  H1225   1.071   .     S
Cr1234 O1242   1.884   .     S
Cr1234 O2173   2.050   .     S
Cr1234 O2228   1.965   .     S
Cr1234 O3004   2.121   .     S
Cr1235 O1237   1.997   .     S
Cr1235 O1547   1.991   .     S
Cr1235 O1615   2.037   .     S
Cr1235 O1618   2.014   .     S
Cr1235 O3127   2.174   .     S
O1236  Cr2981  1.973   .     S
O1236  C3267   1.303   .     D
O1237  C3128   1.294   .     D
O1238  C3130   1.209   .     D
O1239  C1257   1.303   .     D
O1239  Cr1544  1.991   .     S
O1240  C1257   1.318   .     S
O1240  Cr3096  2.100   .     S
O1241  C1260   1.253   1_556 S
O1242  C1260   1.292   .     D
O1243  C1264   1.267   .     D
O1243  Cr2467  1.967   .     S
O1244  C1264   1.280   .     S
O1244  Cr3038  2.111   1_556 S
O1245  C1267   1.297   .     D
O1245  Cr3045  2.072   .     S
O1246  C1267   1.290   .     S
O1246  Cr3088  2.051   .     S
O1247  Cr1482  2.036   .     S
O1247  C3355   1.339   .     D
O1248  Cr3088  2.055   .     S
O1248  C3357   1.253   .     D
O1249  C1274   1.263   .     D
O1249  Cr3090  1.976   .     S
O1250  C1274   1.241   .     S
O1250  Cr1482  2.015   .     S
O1251  C1277   1.358   .     D
O1251  Cr2156  2.050   .     S
O1252  C1277   1.304   .     S
O1252  Cr3038  2.018   .     S
C1253  H1285   1.069   .     S
C1253  C1868   1.408   .     S
C1253  C3268   1.443   .     D
C1254  C1255   1.437   .     S
C1254  H1281   1.070   .     S
C1254  C3129   1.427   .     D
C1255  H1282   1.070   .     S
C1255  C3131   1.428   .     D
C1256  C1258   1.414   .     S
C1256  H1286   1.069   .     S
C1256  C1871   1.414   .     D
C1257  C1258   1.414   .     S
C1258  C1259   1.442   .     D
C1259  H1296   1.069   .     S
C1259  C1874   1.416   .     S
C1260  O1241   1.253   1_554 S
C1260  C1261   1.455   .     S
C1261  C1262   1.424   .     S
C1261  C3509   1.457   1_554 D
C1262  H1291   1.070   .     S
C1262  C2185   1.420   .     D
C1263  C1265   1.453   .     S
C1263  C1266   1.410   .     D
C1263  H1294   1.070   .     S
C1264  C1265   1.385   .     S
C1265  C1269   1.379   .     D
C1266  C1268   1.442   .     S
C1266  H1295   1.069   .     S
C1267  C1268   1.454   .     S
C1268  C1270   1.434   .     D
C1269  C1270   1.436   .     S
C1269  H1292   1.069   .     S
C1270  H1293   1.069   .     S
C1271  C1272   1.449   1_554 D
C1271  H1283   1.069   .     S
C1271  C3356   1.391   .     S
C1272  C1271   1.449   1_556 D
C1272  H1284   1.069   .     S
C1272  C3358   1.383   .     S
C1273  C1275   1.402   .     S
C1273  C1276   1.387   .     D
C1273  H1289   1.069   .     S
C1274  C1275   1.399   .     S
C1275  C1279   1.404   .     D
C1276  C1278   1.403   .     S
C1276  H1290   1.071   .     S
C1277  C1278   1.421   .     S
C1278  C1280   1.422   .     D
C1279  C1280   1.398   .     S
C1279  H1287   1.069   .     S
C1280  H1288   1.071   .     S
Cr1297 O1305   1.884   .     S
Cr1297 O2051   2.051   .     S
Cr1297 O2351   1.966   .     S
Cr1297 O3002   2.121   .     S
Cr1298 O1300   1.998   .     S
Cr1298 O1555   2.036   .     S
Cr1298 O1558   2.014   .     S
Cr1298 O1607   1.991   .     S
Cr1298 O3133   2.174   .     S
O1299  Cr2978  1.972   1_455 S
O1299  C3265   1.304   .     S
O1300  C3134   1.294   .     S
O1301  Cr2979  1.968   .     S
O1301  C3136   1.210   .     D
O1302  C1320   1.303   .     D
O1302  Cr1603  1.992   .     S
O1303  C1320   1.318   .     S
O1303  Cr3102  2.100   .     S
O1304  C1323   1.252   1_565 S
O1305  C1323   1.292   .     D
O1306  C1327   1.268   .     S
O1306  Cr2656  1.966   .     S
O1307  C1327   1.280   .     D
O1307  Cr3034  2.112   1_565 S
O1308  C1330   1.296   .     D
O1308  Cr3044  2.070   .     S
O1309  C1330   1.291   .     S
O1309  Cr3087  2.051   .     S
O1310  Cr1664  2.036   .     S
O1310  C3359   1.339   .     S
O1311  Cr3087  2.056   .     S
O1311  C3360   1.252   .     S
O1312  C1336   1.263   .     D
O1312  Cr3108  1.975   .     S
O1313  C1336   1.241   .     S
O1313  Cr1664  2.014   .     S
O1314  C1339   1.358   .     D
O1314  Cr2035  2.050   .     S
O1315  C1339   1.303   .     S
O1315  Cr3034  2.018   .     S
C1316  H1346   1.069   .     S
C1316  C1929   1.408   .     D
C1316  C3266   1.444   .     S
C1317  C1318   1.436   .     S
C1317  H1343   1.071   .     S
C1317  C3135   1.427   .     D
C1318  H1344   1.069   .     S
C1318  C3137   1.428   .     D
C1319  C1321   1.413   .     S
C1319  H1347   1.069   .     S
C1319  C1932   1.414   .     D
C1320  C1321   1.414   .     S
C1321  C1322   1.441   .     D
C1322  H1357   1.070   .     S
C1322  C1935   1.415   .     S
C1323  O1304   1.252   1_545 S
C1323  C1324   1.454   .     S
C1324  C1325   1.425   .     S
C1324  C3513   1.458   1_545 D
C1325  H1352   1.070   .     S
C1325  C2062   1.420   .     D
C1326  C1328   1.452   .     S
C1326  C1329   1.411   .     D
C1326  H1355   1.070   .     S
C1327  C1328   1.384   .     S
C1328  C1332   1.380   .     D
C1329  C1331   1.441   .     S
C1329  H1356   1.070   .     S
C1330  C1331   1.453   .     S
C1331  C1333   1.435   .     D
C1332  C1333   1.435   .     S
C1332  H1353   1.069   .     S
C1333  H1354   1.069   .     S
C1334  H1345   1.070   .     S
C1334  C3361   1.384   .     S
C1335  C1337   1.401   .     S
C1335  C1338   1.388   .     D
C1335  H1350   1.070   .     S
C1336  C1337   1.399   .     S
C1337  C1341   1.404   .     D
C1338  C1340   1.403   .     S
C1338  H1351   1.069   .     S
C1339  C1340   1.422   .     S
C1340  C1342   1.423   .     D
C1341  C1342   1.398   .     S
C1341  H1348   1.070   .     S
C1342  H1349   1.069   .     S
Cr1358 O1365   1.883   .     S
Cr1358 F1376   2.052   .     S
Cr1358 O2111   2.051   .     S
Cr1358 O2414   1.966   .     S
Cr1358 O2998   2.122   1_455 S
Cr1359 O1360   1.998   .     S
Cr1359 O1493   2.036   .     S
Cr1359 O1496   2.014   .     S
Cr1359 O1668   1.992   .     S
Cr1359 O3121   2.173   .     S
O1360  C3122   1.293   .     S
O1361  Cr2978  1.968   .     S
O1361  C3124   1.209   .     S
O1362  C1380   1.303   .     D
O1362  Cr1664  1.992   .     S
O1363  C1380   1.317   .     S
O1363  Cr3108  2.101   .     S
O1364  C1383   1.253   1_655 S
O1365  C1383   1.292   .     D
O1366  C1387   1.269   .     D
O1366  Cr2529  1.966   .     S
O1367  C1387   1.280   .     S
O1367  Cr3040  2.111   .     S
O1368  C1390   1.296   .     D
O1368  Cr3044  2.072   .     S
O1369  C1390   1.291   .     S
O1369  Cr3085  2.052   .     S
O1370  Cr1603  2.036   .     S
O1370  C3362   1.339   .     D
O1371  Cr3085  2.055   .     S
O1371  C3363   1.253   .     D
O1372  C1396   1.263   .     S
O1372  Cr3102  1.975   .     S
O1373  C1396   1.241   .     D
O1373  Cr1603  2.014   .     S
O1374  C1399   1.358   .     D
O1374  Cr2094  2.051   .     S
O1375  C1399   1.303   .     S
O1375  Cr3040  2.018   1_455 S
C1377  C1378   1.438   .     S
C1377  H1403   1.071   .     S
C1377  C3123   1.427   .     D
C1378  H1404   1.068   .     S
C1378  C3125   1.428   .     D
C1379  C1381   1.414   .     D
C1379  H1406   1.070   .     S
C1379  C1810   1.414   .     S
C1380  C1381   1.413   .     S
C1381  C1382   1.442   .     S
C1382  H1416   1.070   .     S
C1382  C1813   1.415   .     D
C1383  O1364   1.253   1_455 S
C1383  C1384   1.454   .     S
C1384  C1385   1.424   .     S
C1384  C3533   1.458   1_455 D
C1385  H1411   1.069   .     S
C1385  C2123   1.420   .     D
C1386  C1388   1.452   .     S
C1386  C1389   1.411   .     D
C1386  H1414   1.070   .     S
C1387  C1388   1.384   .     S
C1388  C1392   1.380   .     D
C1389  C1391   1.442   .     S
C1389  H1415   1.069   .     S
C1390  C1391   1.453   .     S
C1391  C1393   1.434   .     D
C1392  C1393   1.435   .     S
C1392  H1412   1.069   .     S
C1393  H1413   1.069   .     S
C1394  H1405   1.070   .     S
C1394  C3364   1.384   .     D
C1395  C1397   1.401   .     D
C1395  C1398   1.388   .     S
C1395  H1409   1.070   .     S
C1396  C1397   1.399   .     S
C1397  C1401   1.404   .     S
C1398  C1400   1.403   .     D
C1398  H1410   1.070   .     S
C1399  C1400   1.422   .     S
C1400  C1402   1.423   .     S
C1401  C1402   1.398   .     D
C1401  H1407   1.069   .     S
C1402  H1408   1.070   .     S
Cr1417 O1424   1.884   .     S
Cr1417 F1436   2.053   .     S
Cr1417 O1989   2.051   .     S
Cr1417 O2287   1.965   .     S
Cr1417 O3000   2.121   .     S
Cr1418 O1419   1.997   .     S
Cr1418 F1435   1.938   .     S
Cr1418 O1485   1.992   .     S
Cr1418 O1676   2.036   .     S
Cr1418 O1679   2.014   .     S
Cr1418 O3115   2.173   .     S
O1419  C3116   1.294   .     S
O1420  Cr2981  1.968   .     S
O1420  C3118   1.208   .     D
O1421  C1440   1.303   .     S
O1421  Cr1482  1.991   .     S
O1422  C1440   1.318   .     D
O1422  Cr3090  2.100   .     S
O1423  C1444   1.252   .     D
O1424  C1444   1.293   .     S
O1425  C1448   1.269   .     D
O1425  Cr2593  1.965   .     S
O1426  C1448   1.281   .     S
O1426  Cr3036  2.111   .     S
O1427  C1451   1.296   .     D
O1427  Cr3045  2.071   .     S
O1428  C1451   1.291   .     S
O1428  Cr3084  2.052   .     S
O1429  Cr1544  2.036   .     S
O1429  C3365   1.339   .     D
O1430  Cr3084  2.055   .     S
O1430  C3367   1.253   .     S
O1431  C1458   1.263   .     D
O1431  Cr3096  1.975   .     S
O1432  C1458   1.240   .     S
O1432  Cr1544  2.014   .     S
O1433  C1461   1.358   .     D
O1433  Cr1973  2.051   .     S
O1434  C1461   1.304   .     S
O1434  Cr3036  2.018   .     S
C1437  C1438   1.437   .     S
C1437  H1465   1.070   .     S
C1437  C3117   1.426   .     D
C1438  H1466   1.069   .     S
C1438  C3119   1.428   .     D
C1439  C1441   1.414   .     D
C1439  H1469   1.069   .     S
C1439  C1747   1.414   .     S
C1440  C1441   1.412   .     S
C1441  C1442   1.442   .     S
C1442  H1480   1.070   .     S
C1442  C1750   1.415   .     D
C1443  C1445   1.458   .     D
C1443  H1474   1.068   .     S
C1443  C1997   1.451   .     S
C1444  C1445   1.454   .     S
C1445  C1446   1.425   .     S
C1446  H1475   1.069   .     S
C1446  C2000   1.420   .     D
C1447  C1449   1.453   .     D
C1447  C1450   1.410   .     S
C1447  H1478   1.070   .     S
C1448  C1449   1.384   .     S
C1449  C1453   1.379   .     S
C1450  C1452   1.441   .     D
C1450  H1479   1.069   .     S
C1451  C1452   1.453   .     S
C1452  C1454   1.435   .     S
C1453  C1454   1.435   .     D
C1453  H1476   1.070   .     S
C1454  H1477   1.070   .     S
C1455  C1456   1.448   .     S
C1455  H1467   1.069   .     S
C1455  C3366   1.391   .     D
C1456  H1468   1.070   .     S
C1456  C3368   1.384   .     D
C1457  C1459   1.400   .     S
C1457  C1460   1.388   .     D
C1457  H1472   1.070   .     S
C1458  C1459   1.399   .     S
C1459  C1463   1.404   .     D
C1460  C1462   1.403   .     S
C1460  H1473   1.070   .     S
C1461  C1462   1.421   .     S
C1462  C1464   1.423   .     D
C1463  C1464   1.398   .     S
C1463  H1470   1.070   .     S
C1464  H1471   1.071   .     S
Cr1481 O1488   1.884   .     S
Cr1481 O2285   1.953   .     S
Cr1481 O3019   2.121   .     S
Cr1482 O1483   1.997   .     S
Cr1482 O3091   2.174   .     S
O1483  C3092   1.294   .     S
O1484  Cr2975  1.968   .     S
O1484  C3094   1.209   .     S
O1485  C1502   1.303   .     D
O1486  C1502   1.318   .     S
O1486  Cr3114  2.099   .     S
O1487  C1506   1.253   .     D
O1487  Cr2279  1.953   .     S
O1488  C1506   1.292   .     S
O1489  C1510   1.267   .     D
O1490  C1510   1.280   .     S
O1490  Cr3008  2.112   .     S
O1491  C1513   1.296   .     D
O1491  Cr3048  2.071   .     S
O1492  C1513   1.290   .     S
O1492  Cr3082  2.052   .     S
O1493  C3348   1.340   .     S
O1494  Cr3082  2.056   .     S
O1494  C3350   1.252   .     D
O1495  C1520   1.263   .     D
O1495  Cr3120  1.976   .     S
O1496  C1520   1.240   .     S
O1497  C1523   1.358   .     S
O1498  C1523   1.304   .     D
O1498  Cr3008  2.018   .     S
C1499  C1500   1.436   .     D
C1499  H1527   1.070   .     S
C1499  C3093   1.426   .     S
C1500  H1528   1.069   .     S
C1500  C3095   1.428   .     S
C1501  C1503   1.414   .     S
C1501  H1531   1.069   .     S
C1502  C1503   1.413   .     S
C1503  C1504   1.443   .     D
C1504  H1542   1.070   .     S
C1505  C1507   1.457   .     S
C1505  H1536   1.069   .     S
C1506  C1507   1.454   .     S
C1507  C1508   1.425   .     D
C1508  H1537   1.069   .     S
C1509  C1511   1.452   .     S
C1509  C1512   1.410   .     D
C1509  H1540   1.070   .     S
C1510  C1511   1.384   .     S
C1511  C1515   1.379   .     D
C1512  C1514   1.442   .     S
C1512  H1541   1.070   .     S
C1513  C1514   1.454   .     S
C1514  C1516   1.434   .     D
C1515  C1516   1.436   .     S
C1515  H1538   1.069   .     S
C1516  H1539   1.069   .     S
C1517  C1518   1.448   .     D
C1517  H1529   1.069   .     S
C1517  C3349   1.391   .     S
C1518  H1530   1.070   .     S
C1518  C3351   1.383   .     S
C1519  C1521   1.401   .     S
C1519  C1522   1.388   .     D
C1519  H1534   1.070   .     S
C1520  C1521   1.399   .     S
C1521  C1525   1.404   .     D
C1522  C1524   1.404   .     S
C1522  H1535   1.070   .     S
C1523  C1524   1.421   .     S
C1524  C1526   1.423   .     D
C1525  C1526   1.398   .     S
C1525  H1532   1.070   .     S
C1526  H1533   1.070   .     S
Cr1543 O1550   1.884   .     S
Cr1543 O2226   1.952   .     S
Cr1543 O3016   2.121   .     S
Cr1544 O1545   1.997   .     S
Cr1544 F1561   1.938   .     S
Cr1544 O3097   2.174   .     S
O1545  C3098   1.294   .     S
O1546  Cr2976  1.967   .     S
O1546  C3100   1.209   .     D
O1547  C1565   1.303   .     S
O1548  C1565   1.318   .     D
O1548  Cr3126  2.099   .     S
O1549  C1568   1.253   1_556 S
O1549  Cr2220  1.953   .     S
O1550  C1568   1.292   .     D
O1551  C1572   1.268   .     D
O1552  C1572   1.280   .     S
O1552  Cr3011  2.112   1_556 S
O1553  C1575   1.297   .     D
O1553  Cr3046  2.071   .     S
O1554  C1575   1.290   .     S
O1554  Cr3080  2.051   .     S
O1555  C3341   1.339   .     S
O1556  Cr3080  2.055   .     S
O1556  C3342   1.252   .     D
O1557  C1581   1.263   .     D
O1557  Cr3132  1.976   .     S
O1558  C1581   1.240   .     S
O1559  C1584   1.358   .     S
O1560  C1584   1.304   .     D
O1560  Cr3011  2.018   .     S
C1562  C1563   1.436   .     D
C1562  H1588   1.071   .     S
C1562  C3099   1.427   .     S
C1563  H1589   1.070   .     S
C1563  C3101   1.428   .     S
C1564  C1566   1.414   .     S
C1564  H1591   1.069   .     S
C1565  C1566   1.414   .     S
C1566  C1567   1.442   .     D
C1567  H1601   1.070   .     S
C1568  O1549   1.253   1_554 S
C1568  C1569   1.454   .     S
C1569  C1570   1.424   .     S
C1569  C3483   1.458   1_554 D
C1570  H1596   1.070   .     S
C1571  C1573   1.453   .     S
C1571  C1574   1.410   .     D
C1571  H1599   1.069   .     S
C1572  C1573   1.384   .     S
C1573  C1577   1.379   .     D
C1574  C1576   1.442   .     S
C1574  H1600   1.070   .     S
C1575  C1576   1.453   .     S
C1576  C1578   1.434   .     D
C1577  C1578   1.436   .     S
C1577  H1597   1.069   .     S
C1578  H1598   1.069   .     S
C1579  H1590   1.069   .     S
C1579  C3343   1.383   .     S
C1580  C1582   1.402   .     S
C1580  C1583   1.388   .     D
C1580  H1594   1.070   .     S
C1581  C1582   1.399   .     S
C1582  C1586   1.404   .     D
C1583  C1585   1.403   .     S
C1583  H1595   1.070   .     S
C1584  C1585   1.421   .     S
C1585  C1587   1.423   .     D
C1586  C1587   1.398   .     S
C1586  H1592   1.069   .     S
C1587  H1593   1.071   .     S
Cr1602 O1610   1.883   .     S
Cr1602 O2349   1.953   .     S
Cr1602 O3024   2.121   .     S
Cr1603 O1605   1.997   .     S
Cr1603 O3103   2.174   .     S
O1604  Cr2976  1.973   1_554 S
O1604  C3261   1.304   .     S
O1605  C3104   1.294   .     D
O1606  Cr2977  1.968   .     S
O1606  C3106   1.208   .     D
O1607  C1625   1.303   .     D
O1608  C1625   1.318   .     S
O1608  Cr3132  2.099   .     S
O1609  C1628   1.253   1_565 D
O1609  Cr2342  1.953   .     S
O1610  C1628   1.292   .     S
O1611  C1632   1.269   .     D
O1612  C1632   1.280   .     S
O1612  Cr3006  2.112   .     S
O1613  C1635   1.296   .     D
O1613  Cr3046  2.071   .     S
O1614  C1635   1.291   .     S
O1614  Cr3083  2.052   .     S
O1615  C3352   1.339   .     S
O1616  Cr3083  2.055   .     S
O1616  C3353   1.253   .     S
O1617  C1641   1.263   .     D
O1617  Cr3126  1.976   .     S
O1618  C1641   1.240   .     S
O1619  C1644   1.358   .     S
O1620  C1644   1.303   .     D
O1620  Cr3006  2.019   1_545 S
C1621  H1651   1.069   .     S
C1621  C3262   1.444   .     S
C1622  C1623   1.437   .     S
C1622  H1648   1.070   .     S
C1622  C3105   1.426   .     D
C1623  H1649   1.069   .     S
C1623  C3107   1.428   .     D
C1624  C1626   1.413   .     D
C1624  H1652   1.070   .     S
C1625  C1626   1.413   .     S
C1626  C1627   1.442   .     S
C1627  H1662   1.070   .     S
C1628  O1609   1.253   1_545 D
C1628  C1629   1.454   .     S
C1629  C1630   1.425   .     S
C1629  C3507   1.458   1_545 D
C1630  H1657   1.069   .     S
C1631  C1633   1.452   .     D
C1631  C1634   1.410   .     S
C1631  H1660   1.070   .     S
C1632  C1633   1.384   .     S
C1633  C1637   1.379   .     S
C1634  C1636   1.441   .     D
C1634  H1661   1.070   .     S
C1635  C1636   1.454   .     S
C1636  C1638   1.434   .     S
C1637  C1638   1.435   .     D
C1637  H1658   1.069   .     S
C1638  H1659   1.070   .     S
C1639  H1650   1.070   .     S
C1639  C3354   1.384   .     D
C1640  C1642   1.401   .     S
C1640  C1643   1.388   .     D
C1640  H1655   1.070   .     S
C1641  C1642   1.400   .     S
C1642  C1646   1.404   .     D
C1643  C1645   1.403   .     S
C1643  H1656   1.070   .     S
C1644  C1645   1.421   .     S
C1645  C1647   1.423   .     D
C1646  C1647   1.398   .     S
C1646  H1653   1.070   .     S
C1647  H1654   1.071   .     S
Cr1663 O1671   1.883   .     S
Cr1663 O2412   1.953   .     S
Cr1663 O3021   2.121   1_455 S
Cr1664 O1666   1.996   .     S
Cr1664 F1682   1.938   .     S
Cr1664 O3109   2.174   .     S
O1665  Cr2975  1.973   .     S
O1665  C3263   1.304   .     D
O1666  C3110   1.295   .     S
O1667  C3112   1.209   .     S
O1668  C1687   1.303   .     S
O1669  C1687   1.317   .     D
O1669  Cr3120  2.101   .     S
O1670  C1690   1.253   1_655 S
O1670  Cr2405  1.953   .     S
O1671  C1690   1.292   .     D
O1672  C1694   1.269   .     D
O1673  C1694   1.280   .     S
O1673  Cr3013  2.111   1_655 S
O1674  C1697   1.296   .     D
O1674  Cr3048  2.071   .     S
O1675  C1697   1.290   .     S
O1675  Cr3081  2.052   .     S
O1676  C3344   1.339   .     S
O1677  Cr3081  2.055   .     S
O1677  C3346   1.253   .     S
O1678  C1704   1.263   .     S
O1678  Cr3114  1.975   .     S
O1679  C1704   1.240   .     D
O1680  C1707   1.357   .     S
O1681  C1707   1.304   .     D
O1681  Cr3013  2.018   .     S
C1683  H1715   1.068   .     S
C1683  C3264   1.444   .     D
C1684  C1685   1.437   .     D
C1684  H1711   1.071   .     S
C1684  C3111   1.426   .     S
C1685  H1712   1.069   .     S
C1685  C3113   1.428   .     S
C1686  C1688   1.414   .     S
C1686  H1716   1.069   .     S
C1687  C1688   1.414   .     S
C1688  C1689   1.442   .     D
C1689  H1726   1.070   .     S
C1690  O1670   1.253   1_455 S
C1690  C1691   1.455   .     S
C1691  C1692   1.424   .     S
C1691  C3487   1.457   1_455 D
C1692  H1721   1.069   .     S
C1693  C1695   1.452   .     D
C1693  C1696   1.411   .     S
C1693  H1724   1.069   .     S
C1694  C1695   1.384   .     S
C1695  C1699   1.380   .     S
C1696  C1698   1.441   .     D
C1696  H1725   1.069   .     S
C1697  C1698   1.454   .     S
C1698  C1700   1.434   .     S
C1699  C1700   1.435   .     D
C1699  H1722   1.069   .     S
C1700  H1723   1.069   .     S
C1701  C1702   1.448   1_455 D
C1701  H1713   1.069   .     S
C1701  C3345   1.391   .     S
C1702  C1701   1.448   1_655 D
C1702  H1714   1.070   .     S
C1702  C3347   1.383   .     S
C1703  C1705   1.401   .     D
C1703  C1706   1.388   .     S
C1703  H1719   1.069   .     S
C1704  C1705   1.399   .     S
C1705  C1709   1.403   .     S
C1706  C1708   1.402   .     D
C1706  H1720   1.070   .     S
C1707  C1708   1.422   .     S
C1708  C1710   1.423   .     S
C1709  C1710   1.398   .     D
C1709  H1717   1.069   .     S
C1710  H1718   1.070   .     S
Cr1727 O1734   1.883   .     S
Cr1727 O2905   1.953   .     S
Cr1727 O3028   2.122   .     S
Cr1728 O1729   1.998   .     S
Cr1728 O3115   2.173   .     S
O1729  C3116   1.293   .     D
O1730  Cr2985  1.968   .     S
O1730  C3118   1.209   .     S
O1731  C1748   1.303   .     S
O1732  C1748   1.317   .     D
O1732  Cr3138  2.101   .     S
O1733  C1752   1.252   .     D
O1733  Cr2899  1.954   .     S
O1734  C1752   1.292   .     S
O1735  C1756   1.268   .     D
O1736  C1756   1.281   .     S
O1736  Cr2991  2.111   .     S
O1737  C1759   1.296   .     D
O1737  Cr3043  2.071   .     S
O1738  C1759   1.291   .     S
O1738  Cr3075  2.052   .     S
O1739  C3330   1.339   .     D
O1740  Cr3075  2.055   .     S
O1740  C3332   1.253   .     S
O1741  C1766   1.263   .     S
O1741  Cr3144  1.975   .     S
O1742  C1766   1.240   .     D
O1743  C1769   1.358   .     D
O1744  C1769   1.304   .     S
O1744  Cr2991  2.018   .     S
C1745  C1746   1.438   .     D
C1745  H1773   1.070   .     S
C1745  C3117   1.427   .     S
C1746  H1774   1.068   .     S
C1746  C3119   1.428   .     S
C1747  C1749   1.414   .     D
C1747  H1777   1.069   .     S
C1748  C1749   1.413   .     S
C1749  C1750   1.442   .     S
C1750  H1788   1.070   .     S
C1751  C1753   1.458   .     S
C1751  H1782   1.068   .     S
C1752  C1753   1.454   .     S
C1753  C1754   1.425   .     D
C1754  H1783   1.069   .     S
C1755  C1757   1.453   .     S
C1755  C1758   1.410   .     D
C1755  H1786   1.070   .     S
C1756  C1757   1.384   .     S
C1757  C1761   1.379   .     D
C1758  C1760   1.441   .     S
C1758  H1787   1.069   .     S
C1759  C1760   1.453   .     S
C1760  C1762   1.434   .     D
C1761  C1762   1.435   .     S
C1761  H1784   1.070   .     S
C1762  H1785   1.069   .     S
C1763  C1764   1.448   .     S
C1763  H1775   1.068   .     S
C1763  C3331   1.390   .     D
C1764  H1776   1.070   .     S
C1764  C3333   1.384   .     D
C1765  C1767   1.401   .     S
C1765  C1768   1.388   .     D
C1765  H1780   1.070   .     S
C1766  C1767   1.399   .     S
C1767  C1771   1.404   .     D
C1768  C1770   1.403   .     S
C1768  H1781   1.070   .     S
C1769  C1770   1.422   .     S
C1770  C1772   1.423   .     D
C1771  C1772   1.398   .     S
C1771  H1778   1.069   .     S
C1772  H1779   1.070   .     S
Cr1789 O1796   1.884   .     S
Cr1789 O2845   1.953   .     S
Cr1789 O3026   2.121   1_455 S
Cr1790 O1791   1.997   .     S
Cr1790 F1807   1.938   .     S
Cr1790 O3121   2.173   .     S
O1791  C3122   1.294   .     D
O1792  Cr2987  1.968   .     S
O1792  C3124   1.208   .     D
O1793  C1811   1.304   .     D
O1794  C1811   1.318   .     S
O1794  Cr3150  2.100   .     S
O1795  C1814   1.253   1_655 S
O1795  Cr2839  1.953   .     S
O1796  C1814   1.293   .     D
O1797  C1818   1.269   .     D
O1798  C1818   1.280   .     S
O1798  Cr2993  2.111   .     S
O1799  C1821   1.296   .     S
O1799  Cr3042  2.071   .     S
O1800  C1821   1.291   .     D
O1800  Cr3078  2.052   .     S
O1801  C3338   1.339   .     D
O1802  Cr3078  2.055   .     S
O1802  C3339   1.253   .     S
O1803  C1827   1.264   .     S
O1803  Cr3156  1.975   .     S
O1804  C1827   1.240   .     D
O1805  C1830   1.358   .     D
O1806  C1830   1.303   .     S
O1806  Cr2993  2.018   1_455 S
C1808  C1809   1.437   .     D
C1808  H1834   1.070   .     S
C1808  C3123   1.426   .     S
C1809  H1835   1.069   .     S
C1809  C3125   1.428   .     S
C1810  C1812   1.414   .     D
C1810  H1837   1.069   .     S
C1811  C1812   1.412   .     S
C1812  C1813   1.442   .     S
C1813  H1847   1.070   .     S
C1814  O1795   1.253   1_455 S
C1814  C1815   1.454   .     S
C1815  C1816   1.424   .     S
C1815  C3479   1.458   1_455 D
C1816  H1842   1.069   .     S
C1817  C1819   1.452   .     D
C1817  C1820   1.411   .     S
C1817  H1845   1.070   .     S
C1818  C1819   1.384   .     S
C1819  C1823   1.379   .     S
C1820  C1822   1.441   .     D
C1820  H1846   1.069   .     S
C1821  C1822   1.453   .     S
C1822  C1824   1.435   .     S
C1823  C1824   1.435   .     D
C1823  H1843   1.069   .     S
C1824  H1844   1.070   .     S
C1825  H1836   1.070   .     S
C1825  C3340   1.384   .     S
C1826  C1828   1.400   .     S
C1826  C1829   1.388   .     D
C1826  H1840   1.070   .     S
C1827  C1828   1.399   .     S
C1828  C1832   1.404   .     D
C1829  C1831   1.403   .     S
C1829  H1841   1.070   .     S
C1830  C1831   1.422   .     S
C1831  C1833   1.423   .     D
C1832  C1833   1.398   .     S
C1832  H1838   1.070   .     S
C1833  H1839   1.071   .     S
Cr1848 O1856   1.884   .     S
Cr1848 F1867   2.053   .     S
Cr1848 O2721   1.953   .     S
Cr1848 O3033   2.121   .     S
Cr1849 O1851   1.997   .     S
Cr1849 O3127   2.174   .     S
O1850  C3265   1.303   .     D
O1851  C3128   1.294   .     S
O1852  Cr2983  1.968   .     S
O1852  C3130   1.209   .     S
O1853  C1872   1.303   .     D
O1854  C1872   1.318   .     S
O1854  Cr3156  2.099   .     S
O1855  C1875   1.253   1_556 S
O1855  Cr2714  1.953   .     S
O1856  C1875   1.292   .     D
O1857  C1879   1.268   .     S
O1858  C1879   1.281   .     D
O1858  Cr2989  2.112   1_556 S
O1859  C1882   1.297   .     S
O1859  Cr3042  2.071   .     S
O1860  C1882   1.291   .     D
O1860  Cr3074  2.051   .     S
O1861  C3327   1.339   .     S
O1862  Cr3074  2.055   .     S
O1862  C3328   1.253   .     D
O1863  C1888   1.263   .     D
O1863  Cr3150  1.976   .     S
O1864  C1888   1.241   .     S
O1865  C1891   1.358   .     D
O1866  C1891   1.304   .     S
O1866  Cr2989  2.018   .     S
C1868  H1898   1.069   .     S
C1868  C3266   1.444   .     D
C1869  C1870   1.437   .     D
C1869  H1895   1.071   .     S
C1869  C3129   1.426   .     S
C1870  H1896   1.069   .     S
C1870  C3131   1.428   .     S
C1871  C1873   1.414   .     S
C1871  H1899   1.069   .     S
C1872  C1873   1.414   .     S
C1873  C1874   1.442   .     D
C1874  H1909   1.070   .     S
C1875  O1855   1.253   1_554 S
C1875  C1876   1.455   .     S
C1876  C1877   1.424   .     S
C1876  C3471   1.458   1_554 D
C1877  H1904   1.070   .     S
C1878  C1880   1.453   .     S
C1878  C1881   1.411   .     D
C1878  H1907   1.070   .     S
C1879  C1880   1.384   .     S
C1880  C1884   1.379   .     D
C1881  C1883   1.442   .     S
C1881  H1908   1.069   .     S
C1882  C1883   1.453   .     S
C1883  C1885   1.434   .     D
C1884  C1885   1.436   .     S
C1884  H1905   1.069   .     S
C1885  H1906   1.069   .     S
C1886  H1897   1.069   .     S
C1886  C3329   1.383   .     D
C1887  C1889   1.402   .     S
C1887  C1890   1.388   .     D
C1887  H1902   1.069   .     S
C1888  C1889   1.399   .     S
C1889  C1893   1.404   .     D
C1890  C1892   1.403   .     S
C1890  H1903   1.070   .     S
C1891  C1892   1.421   .     S
C1892  C1894   1.422   .     D
C1893  C1894   1.397   .     S
C1893  H1900   1.070   .     S
C1894  H1901   1.071   .     S
Cr1910 O1918   1.884   .     S
Cr1910 O2785   1.953   .     S
Cr1910 O3030   2.121   .     S
Cr1911 O1913   1.998   .     S
Cr1911 O3133   2.174   .     S
O1912  Cr2985  1.972   .     S
O1912  C3267   1.304   .     S
O1913  C3134   1.294   .     D
O1914  Cr2982  1.968   .     S
O1914  C3136   1.210   .     S
O1915  C1933   1.303   .     D
O1916  C1933   1.317   .     S
O1916  Cr3144  2.101   .     S
O1917  C1936   1.252   1_565 S
O1917  Cr2778  1.954   .     S
O1918  C1936   1.292   .     D
O1919  C1940   1.267   .     S
O1920  C1940   1.280   .     D
O1920  Cr2995  2.112   1_565 S
O1921  C1943   1.296   .     S
O1921  Cr3043  2.071   .     S
O1922  C1943   1.291   .     D
O1922  Cr3076  2.051   .     S
O1923  C3334   1.339   .     S
O1924  Cr3076  2.056   .     S
O1924  C3336   1.252   .     D
O1925  C1950   1.263   .     D
O1925  Cr3138  1.975   .     S
O1926  C1950   1.241   .     S
O1927  C1953   1.358   .     S
O1928  C1953   1.303   .     D
O1928  Cr2995  2.018   .     S
C1929  H1961   1.069   .     S
C1929  C3268   1.444   .     S
C1930  C1931   1.436   .     D
C1930  H1957   1.070   .     S
C1930  C3135   1.427   .     S
C1931  H1958   1.070   .     S
C1931  C3137   1.428   .     S
C1932  C1934   1.413   .     S
C1932  H1962   1.069   .     S
C1933  C1934   1.414   .     S
C1934  C1935   1.442   .     D
C1935  H1972   1.070   .     S
C1936  O1917   1.252   1_545 S
C1936  C1937   1.454   .     S
C1937  C1938   1.425   .     S
C1937  C3475   1.457   1_545 D
C1938  H1967   1.070   .     S
C1939  C1941   1.452   .     D
C1939  C1942   1.410   .     S
C1939  H1970   1.070   .     S
C1940  C1941   1.385   .     S
C1941  C1945   1.379   .     S
C1942  C1944   1.441   .     D
C1942  H1971   1.070   .     S
C1943  C1944   1.454   .     S
C1944  C1946   1.434   .     S
C1945  C1946   1.436   .     D
C1945  H1968   1.069   .     S
C1946  H1969   1.069   .     S
C1947  C1948   1.448   1_545 D
C1947  H1959   1.068   .     S
C1947  C3335   1.391   .     S
C1948  C1947   1.448   1_565 D
C1948  H1960   1.070   .     S
C1948  C3337   1.384   .     S
C1949  C1951   1.401   .     S
C1949  C1952   1.387   .     D
C1949  H1965   1.070   .     S
C1950  C1951   1.399   .     S
C1951  C1955   1.404   .     D
C1952  C1954   1.404   .     S
C1952  H1966   1.070   .     S
C1953  C1954   1.422   .     S
C1954  C1956   1.423   .     D
C1955  C1956   1.399   .     S
C1955  H1963   1.069   .     S
C1956  H1964   1.069   .     S
Cr1973 O1980   1.884   .     S
Cr1973 O2599   1.953   .     S
Cr1973 O3037   2.121   .     S
Cr1974 O1975   1.998   .     S
Cr1974 O3139   2.173   .     S
O1975  C3140   1.294   .     S
O1976  Cr2981  1.968   .     S
O1976  C3142   1.209   .     D
O1977  C1994   1.304   .     S
O1978  C1994   1.317   .     D
O1978  Cr3090  2.099   .     S
O1979  C1998   1.253   .     D
O1979  Cr2593  1.952   .     S
O1980  C1998   1.292   .     S
O1981  C2002   1.269   .     D
O1982  C2002   1.280   .     S
O1982  Cr2999  2.111   .     S
O1983  C2005   1.297   .     D
O1983  Cr3045  2.071   .     S
O1984  C2005   1.290   .     S
O1984  Cr3088  2.052   .     S
O1985  C3365   1.339   .     S
O1986  Cr3088  2.056   .     S
O1986  C3367   1.253   .     D
O1987  C2012   1.263   .     S
O1987  Cr3096  1.975   .     S
O1988  C2012   1.240   .     D
O1989  C2015   1.358   .     D
O1990  C2015   1.304   .     S
O1990  Cr2999  2.018   .     S
C1991  C1992   1.437   .     S
C1991  H2019   1.070   .     S
C1991  C3141   1.426   .     D
C1992  H2020   1.069   .     S
C1992  C3143   1.428   .     D
C1993  C1995   1.413   .     S
C1993  H2023   1.070   .     S
C1994  C1995   1.413   .     S
C1995  C1996   1.442   .     D
C1996  H2034   1.070   .     S
C1997  C1999   1.457   .     D
C1997  H2028   1.069   .     S
C1998  C1999   1.454   .     S
C1999  C2000   1.425   .     S
C2000  H2029   1.069   .     S
C2001  C2003   1.452   .     D
C2001  C2004   1.411   .     S
C2001  H2032   1.070   .     S
C2002  C2003   1.384   .     S
C2003  C2007   1.379   .     S
C2004  C2006   1.441   .     D
C2004  H2033   1.069   .     S
C2005  C2006   1.453   .     S
C2006  C2008   1.433   .     S
C2007  C2008   1.435   .     D
C2007  H2030   1.069   .     S
C2008  H2031   1.070   .     S
C2009  C2010   1.448   .     D
C2009  H2021   1.069   .     S
C2009  C3366   1.391   .     S
C2010  H2022   1.069   .     S
C2010  C3368   1.384   .     S
C2011  C2013   1.400   .     S
C2011  C2014   1.388   .     D
C2011  H2026   1.070   .     S
C2012  C2013   1.399   .     S
C2013  C2017   1.405   .     D
C2014  C2016   1.403   .     S
C2014  H2027   1.070   .     S
C2015  C2016   1.421   .     S
C2016  C2018   1.423   .     D
C2017  C2018   1.397   .     S
C2017  H2024   1.070   .     S
C2018  H2025   1.071   .     S
Cr2035 O2042   1.883   .     S
Cr2035 F2053   2.053   .     S
Cr2035 O2662   1.954   .     S
Cr2035 O3035   2.121   1_545 S
Cr2036 O2037   1.997   .     S
Cr2036 O3145   2.173   .     S
O2037  C3146   1.294   .     S
O2038  Cr2979  1.968   .     S
O2038  C3148   1.209   .     S
O2039  C2057   1.303   .     D
O2040  C2057   1.317   .     S
O2040  Cr3102  2.101   .     S
O2041  C2060   1.252   1_565 S
O2041  Cr2656  1.953   .     S
O2042  C2060   1.293   .     D
O2043  C2064   1.268   .     D
O2044  C2064   1.281   .     S
O2044  Cr3001  2.111   1_565 S
O2045  C2067   1.296   .     D
O2045  Cr3044  2.071   .     S
O2046  C2067   1.290   .     S
O2046  Cr3085  2.052   .     S
O2047  C3359   1.339   .     D
O2048  Cr3085  2.055   .     S
O2048  C3360   1.253   .     D
O2049  C2073   1.263   .     S
O2049  Cr3108  1.975   .     S
O2050  C2073   1.241   .     D
O2051  C2076   1.358   .     D
O2052  C2076   1.303   .     S
O2052  Cr3001  2.018   .     S
C2054  C2055   1.437   .     D
C2054  H2080   1.071   .     S
C2054  C3147   1.427   .     S
C2055  H2081   1.068   .     S
C2055  C3149   1.428   .     S
C2056  C2058   1.414   .     D
C2056  H2083   1.069   .     S
C2057  C2058   1.414   .     S
C2058  C2059   1.442   .     S
C2059  H2093   1.069   .     S
C2060  O2041   1.252   1_545 S
C2060  C2061   1.454   .     S
C2061  C2062   1.425   .     S
C2061  C3515   1.457   1_545 D
C2062  H2088   1.069   .     S
C2063  C2065   1.452   .     S
C2063  C2066   1.410   .     D
C2063  H2091   1.070   .     S
C2064  C2065   1.384   .     S
C2065  C2069   1.380   .     D
C2066  C2068   1.441   .     S
C2066  H2092   1.069   .     S
C2067  C2068   1.455   .     S
C2068  C2070   1.434   .     D
C2069  C2070   1.435   .     S
C2069  H2089   1.070   .     S
C2070  H2090   1.069   .     S
C2071  H2082   1.070   .     S
C2071  C3361   1.383   .     D
C2072  C2074   1.401   .     S
C2072  C2075   1.388   .     D
C2072  H2086   1.070   .     S
C2073  C2074   1.399   .     S
C2074  C2078   1.404   .     D
C2075  C2077   1.403   .     S
C2075  H2087   1.070   .     S
C2076  C2077   1.422   .     S
C2077  C2079   1.422   .     D
C2078  C2079   1.398   .     S
C2078  H2084   1.069   .     S
C2079  H2085   1.070   .     S
Cr2094 O2102   1.884   .     S
Cr2094 O2536   1.952   .     S
Cr2094 O3041   2.122   .     S
Cr2095 O2097   1.998   .     S
Cr2095 F2113   1.938   .     S
Cr2095 O3151   2.173   .     S
O2096  Cr2979  1.972   1_545 S
O2096  C3269   1.304   .     S
O2097  C3152   1.293   .     S
O2098  Cr2978  1.968   .     S
O2098  C3154   1.209   .     S
O2099  C2118   1.303   .     D
O2100  C2118   1.317   .     S
O2100  Cr3108  2.100   .     S
O2101  C2121   1.253   1_655 S
O2101  Cr2529  1.953   .     S
O2102  C2121   1.292   .     D
O2103  C2125   1.268   .     D
O2104  C2125   1.280   .     S
O2104  Cr2997  2.111   .     S
O2105  C2128   1.296   .     D
O2105  Cr3044  2.071   .     S
O2106  C2128   1.291   .     S
O2106  Cr3087  2.051   .     S
O2107  C3362   1.339   .     S
O2108  Cr3087  2.055   .     S
O2108  C3363   1.252   .     S
O2109  C2134   1.263   .     D
O2109  Cr3102  1.975   .     S
O2110  C2134   1.241   .     S
O2111  C2137   1.358   .     D
O2112  C2137   1.303   .     S
O2112  Cr2997  2.018   1_455 S
C2114  H2144   1.069   .     S
C2114  C3270   1.443   .     D
C2115  C2116   1.437   .     S
C2115  H2141   1.070   .     S
C2115  C3153   1.427   .     D
C2116  H2142   1.069   .     S
C2116  C3155   1.428   .     D
C2117  C2119   1.415   .     D
C2117  H2145   1.069   .     S
C2118  C2119   1.413   .     S
C2119  C2120   1.442   .     S
C2120  H2155   1.070   .     S
C2121  O2101   1.253   1_455 S
C2121  C2122   1.454   .     S
C2122  C2123   1.425   .     S
C2122  C3535   1.457   1_455 D
C2123  H2150   1.070   .     S
C2124  C2126   1.452   .     S
C2124  C2127   1.411   .     D
C2124  H2153   1.070   .     S
C2125  C2126   1.385   .     S
C2126  C2130   1.380   .     D
C2127  C2129   1.441   .     S
C2127  H2154   1.070   .     S
C2128  C2129   1.454   .     S
C2129  C2131   1.434   .     D
C2130  C2131   1.435   .     S
C2130  H2151   1.069   .     S
C2131  H2152   1.069   .     S
C2132  H2143   1.069   .     S
C2132  C3364   1.383   .     S
C2133  C2135   1.401   .     D
C2133  C2136   1.388   .     S
C2133  H2148   1.070   .     S
C2134  C2135   1.398   .     S
C2135  C2139   1.404   .     S
C2136  C2138   1.403   .     D
C2136  H2149   1.070   .     S
C2137  C2138   1.422   .     S
C2138  C2140   1.423   .     S
C2139  C2140   1.398   .     D
C2139  H2146   1.069   .     S
C2140  H2147   1.069   .     S
Cr2156 O2164   1.884   .     S
Cr2156 O2474   1.953   .     S
Cr2156 O3039   2.121   .     S
Cr2157 O2159   1.997   .     S
Cr2157 F2175   1.938   .     S
Cr2157 O3157   2.174   .     S
O2158  Cr2981  1.973   .     S
O2158  C3271   1.304   .     D
O2159  C3158   1.295   .     D
O2160  C3160   1.210   .     S
O2161  C2180   1.304   .     D
O2162  C2180   1.318   .     S
O2162  Cr3096  2.100   .     S
O2163  C2183   1.253   1_556 S
O2163  Cr2467  1.954   .     S
O2164  C2183   1.292   .     D
O2165  C2187   1.268   .     D
O2166  C2187   1.280   .     S
O2166  Cr3003  2.111   1_556 S
O2167  C2190   1.296   .     D
O2167  Cr3045  2.071   .     S
O2168  C2190   1.291   .     S
O2168  Cr3084  2.051   .     S
O2169  C3355   1.338   .     S
O2170  Cr3084  2.055   .     S
O2170  C3357   1.253   .     S
O2171  C2197   1.263   .     D
O2171  Cr3090  1.976   .     S
O2172  C2197   1.241   .     S
O2173  C2200   1.358   .     D
O2174  C2200   1.304   .     S
O2174  Cr3003  2.017   .     S
C2176  H2208   1.069   .     S
C2176  C3272   1.444   .     S
C2177  C2178   1.437   .     S
C2177  H2204   1.070   .     S
C2177  C3159   1.426   .     D
C2178  H2205   1.069   .     S
C2178  C3161   1.428   .     D
C2179  C2181   1.414   .     D
C2179  H2209   1.070   .     S
C2180  C2181   1.413   .     S
C2181  C2182   1.441   .     S
C2182  H2219   1.070   .     S
C2183  O2163   1.253   1_554 S
C2183  C2184   1.455   .     S
C2184  C2185   1.424   .     S
C2184  C3511   1.458   1_554 D
C2185  H2214   1.070   .     S
C2186  C2188   1.453   .     S
C2186  C2189   1.410   .     D
C2186  H2217   1.070   .     S
C2187  C2188   1.384   .     S
C2188  C2192   1.379   .     D
C2189  C2191   1.442   .     S
C2189  H2218   1.069   .     S
C2190  C2191   1.453   .     S
C2191  C2193   1.434   .     D
C2192  C2193   1.435   .     S
C2192  H2215   1.069   .     S
C2193  H2216   1.069   .     S
C2194  C2195   1.449   1_554 S
C2194  H2206   1.069   .     S
C2194  C3356   1.390   .     D
C2195  C2194   1.449   1_556 S
C2195  H2207   1.069   .     S
C2195  C3358   1.383   .     D
C2196  C2198   1.402   .     S
C2196  C2199   1.387   .     D
C2196  H2212   1.069   .     S
C2197  C2198   1.399   .     S
C2198  C2202   1.404   .     D
C2199  C2201   1.403   .     S
C2199  H2213   1.070   .     S
C2200  C2201   1.421   .     S
C2201  C2203   1.423   .     D
C2202  C2203   1.398   .     S
C2202  H2210   1.068   .     S
C2203  H2211   1.070   .     S
Cr2220 O2227   1.883   .     S
Cr2220 O3016   2.122   1_556 S
Cr2221 O2222   1.997   .     S
Cr2221 F2238   1.938   .     S
Cr2221 O3163   2.173   .     S
O2222  C3164   1.293   .     D
O2223  Cr2962  1.968   .     S
O2223  C3166   1.209   .     S
O2224  C2242   1.303   .     D
O2225  C2242   1.318   .     S
O2225  Cr3186  2.100   .     S
O2226  C2245   1.253   1_554 D
O2227  C2245   1.292   .     S
O2228  C2249   1.269   .     D
O2229  C2249   1.280   .     S
O2229  Cr3003  2.112   .     S
O2230  C2252   1.297   .     D
O2230  Cr3056  2.070   .     S
O2231  C2252   1.290   .     S
O2231  Cr3066  2.052   .     S
O2232  C3306   1.339   .     D
O2233  Cr3066  2.055   .     S
O2233  C3307   1.252   .     D
O2234  C2258   1.263   .     D
O2234  Cr3192  1.976   .     S
O2235  C2258   1.241   .     S
O2236  C2261   1.358   .     D
O2237  C2261   1.303   .     S
O2237  Cr3003  2.019   1_556 S
C2239  C2240   1.437   .     D
C2239  H2265   1.071   .     S
C2239  C3165   1.426   .     S
C2240  H2266   1.069   .     S
C2240  C3167   1.427   .     S
C2241  C2243   1.413   .     S
C2241  H2268   1.069   .     S
C2242  C2243   1.413   .     S
C2243  C2244   1.443   .     D
C2244  H2278   1.069   .     S
C2245  O2226   1.253   1_556 D
C2245  C2246   1.455   .     S
C2246  C2247   1.425   .     S
C2246  C3419   1.458   1_556 D
C2247  H2273   1.069   .     S
C2248  C2250   1.453   .     S
C2248  C2251   1.410   .     D
C2248  H2276   1.070   .     S
C2249  C2250   1.385   .     S
C2250  C2254   1.379   .     D
C2251  C2253   1.441   .     S
C2251  H2277   1.069   .     S
C2252  C2253   1.454   .     S
C2253  C2255   1.435   .     D
C2254  C2255   1.435   .     S
C2254  H2274   1.069   .     S
C2255  H2275   1.069   .     S
C2256  H2267   1.069   .     S
C2256  C3308   1.384   .     S
C2257  C2259   1.402   .     S
C2257  C2260   1.387   .     D
C2257  H2271   1.070   .     S
C2258  C2259   1.399   .     S
C2259  C2263   1.404   .     D
C2260  C2262   1.403   .     S
C2260  H2272   1.070   .     S
C2261  C2262   1.422   .     S
C2262  C2264   1.423   .     D
C2263  C2264   1.398   .     S
C2263  H2269   1.069   .     S
C2264  H2270   1.071   .     S
Cr2279 O2286   1.883   .     S
Cr2279 F2297   2.053   .     S
Cr2279 O3019   2.121   .     S
Cr2280 O2281   1.997   .     S
Cr2280 O3169   2.173   .     S
O2281  C3170   1.294   .     S
O2282  Cr2963  1.968   .     S
O2282  C3172   1.209   .     S
O2283  C2301   1.303   .     S
O2284  C2301   1.317   .     D
O2284  Cr3198  2.100   .     S
O2285  C2305   1.253   .     S
O2286  C2305   1.292   .     D
O2287  C2309   1.269   .     S
O2288  C2309   1.280   .     D
O2288  Cr2999  2.112   .     S
O2289  C2312   1.296   .     S
O2289  Cr3055  2.071   .     S
O2290  C2312   1.290   .     D
O2290  Cr3064  2.051   .     S
O2291  C3299   1.338   .     S
O2292  Cr3064  2.055   .     S
O2292  C3301   1.252   .     S
O2293  C2319   1.264   .     D
O2293  Cr3204  1.975   .     S
O2294  C2319   1.240   .     S
O2295  C2322   1.358   .     S
O2296  C2322   1.303   .     D
O2296  Cr2999  2.018   .     S
C2298  C2299   1.437   .     D
C2298  H2326   1.070   .     S
C2298  C3171   1.427   .     S
C2299  H2327   1.070   .     S
C2299  C3173   1.428   .     S
C2300  C2302   1.414   .     D
C2300  H2330   1.069   .     S
C2301  C2302   1.413   .     S
C2302  C2303   1.442   .     S
C2303  H2341   1.070   .     S
C2304  C2306   1.457   .     S
C2304  H2335   1.069   .     S
C2305  C2306   1.455   .     S
C2306  C2307   1.425   .     D
C2307  H2336   1.070   .     S
C2308  C2310   1.452   .     S
C2308  C2311   1.410   .     D
C2308  H2339   1.070   .     S
C2309  C2310   1.385   .     S
C2310  C2314   1.379   .     D
C2311  C2313   1.442   .     S
C2311  H2340   1.069   .     S
C2312  C2313   1.454   .     S
C2313  C2315   1.433   .     D
C2314  C2315   1.436   .     S
C2314  H2337   1.070   .     S
C2315  H2338   1.069   .     S
C2316  C2317   1.449   .     S
C2316  H2328   1.069   .     S
C2316  C3300   1.391   .     D
C2317  H2329   1.069   .     S
C2317  C3302   1.383   .     D
C2318  C2320   1.401   .     S
C2318  C2321   1.387   .     D
C2318  H2333   1.069   .     S
C2319  C2320   1.399   .     S
C2320  C2324   1.405   .     D
C2321  C2323   1.403   .     S
C2321  H2334   1.071   .     S
C2322  C2323   1.422   .     S
C2323  C2325   1.424   .     D
C2324  C2325   1.398   .     S
C2324  H2331   1.070   .     S
C2325  H2332   1.070   .     S
Cr2342 O2350   1.884   .     S
Cr2342 O3024   2.122   1_565 S
Cr2343 O2345   1.997   .     S
Cr2343 O3175   2.173   .     S
O2344  Cr2963  1.973   .     S
O2344  C3273   1.304   .     S
O2345  C3176   1.294   .     D
O2346  C3178   1.209   .     D
O2347  C2365   1.303   .     S
O2348  C2365   1.317   .     D
O2348  Cr3204  2.100   .     S
O2349  C2368   1.253   1_545 D
O2350  C2368   1.293   .     S
O2351  C2372   1.269   .     S
O2352  C2372   1.280   .     D
O2352  Cr3001  2.112   .     S
O2353  C2375   1.296   .     D
O2353  Cr3055  2.071   .     S
O2354  C2375   1.290   .     S
O2354  Cr3067  2.052   .     S
O2355  C3309   1.339   .     D
O2356  Cr3067  2.055   .     S
O2356  C3311   1.253   .     D
O2357  C2382   1.263   .     D
O2357  Cr3198  1.976   .     S
O2358  C2382   1.241   .     S
O2359  C2385   1.358   .     D
O2360  C2385   1.303   .     S
O2360  Cr3001  2.019   1_565 S
C2361  H2393   1.070   .     S
C2361  C3274   1.444   .     D
C2362  C2363   1.437   .     S
C2362  H2389   1.070   .     S
C2362  C3177   1.427   .     D
C2363  H2390   1.069   .     S
C2363  C3179   1.428   .     D
C2364  C2366   1.414   .     S
C2364  H2394   1.069   .     S
C2365  C2366   1.413   .     S
C2366  C2367   1.443   .     D
C2367  H2404   1.070   .     S
C2368  O2349   1.253   1_565 D
C2368  C2369   1.454   .     S
C2369  C2370   1.425   .     S
C2369  C3423   1.458   1_565 D
C2370  H2399   1.069   .     S
C2371  C2373   1.453   .     S
C2371  C2374   1.410   .     D
C2371  H2402   1.070   .     S
C2372  C2373   1.383   .     S
C2373  C2377   1.378   .     D
C2374  C2376   1.441   .     S
C2374  H2403   1.069   .     S
C2375  C2376   1.453   .     S
C2376  C2378   1.435   .     D
C2377  C2378   1.435   .     S
C2377  H2400   1.069   .     S
C2378  H2401   1.069   .     S
C2379  C2380   1.448   1_565 S
C2379  H2391   1.070   .     S
C2379  C3310   1.391   .     D
C2380  C2379   1.448   1_545 S
C2380  H2392   1.069   .     S
C2380  C3312   1.384   .     D
C2381  C2383   1.401   .     S
C2381  C2384   1.387   .     D
C2381  H2397   1.070   .     S
C2382  C2383   1.398   .     S
C2383  C2387   1.405   .     D
C2384  C2386   1.403   .     S
C2384  H2398   1.070   .     S
C2385  C2386   1.421   .     S
C2386  C2388   1.423   .     D
C2387  C2388   1.398   .     S
C2387  H2395   1.069   .     S
C2388  H2396   1.071   .     S
Cr2405 O2413   1.884   .     S
Cr2405 O3021   2.121   .     S
Cr2406 O2408   1.998   .     S
Cr2406 F2424   1.938   .     S
Cr2406 O3181   2.174   .     S
O2407  Cr2962  1.972   1_556 S
O2407  C3275   1.303   .     S
O2408  C3182   1.294   .     S
O2409  Cr2964  1.968   .     S
O2409  C3184   1.209   .     S
O2410  C2429   1.302   .     S
O2411  C2429   1.318   .     D
O2411  Cr3192  2.100   .     S
O2412  C2432   1.253   1_455 S
O2413  C2432   1.291   .     D
O2414  C2436   1.268   .     S
O2415  C2436   1.280   .     D
O2415  Cr2997  2.111   1_455 S
O2416  C2439   1.297   .     D
O2416  Cr3056  2.072   .     S
O2417  C2439   1.290   .     S
O2417  Cr3065  2.052   .     S
O2418  C3303   1.339   .     D
O2419  Cr3065  2.055   .     S
O2419  C3304   1.252   .     S
O2420  C2445   1.263   .     S
O2420  Cr3186  1.976   .     S
O2421  C2445   1.240   .     D
O2422  C2448   1.359   .     D
O2423  C2448   1.303   .     S
O2423  Cr2997  2.018   .     S
C2425  H2455   1.069   .     S
C2425  C3276   1.444   .     S
C2426  C2427   1.437   .     S
C2426  H2452   1.070   .     S
C2426  C3183   1.427   .     D
C2427  H2453   1.069   .     S
C2427  C3185   1.428   .     D
C2428  C2430   1.414   .     S
C2428  H2456   1.070   .     S
C2429  C2430   1.412   .     S
C2430  C2431   1.442   .     D
C2431  H2466   1.070   .     S
C2432  O2412   1.253   1_655 S
C2432  C2433   1.454   .     S
C2433  C2434   1.425   .     S
C2433  C3415   1.458   1_655 D
C2434  H2461   1.069   .     S
C2435  C2437   1.452   .     D
C2435  C2438   1.411   .     S
C2435  H2464   1.070   .     S
C2436  C2437   1.384   .     S
C2437  C2441   1.379   .     S
C2438  C2440   1.442   .     D
C2438  H2465   1.069   .     S
C2439  C2440   1.453   .     S
C2440  C2442   1.434   .     S
C2441  C2442   1.435   .     D
C2441  H2462   1.070   .     S
C2442  H2463   1.069   .     S
C2443  H2454   1.069   .     S
C2443  C3305   1.384   .     S
C2444  C2446   1.401   .     S
C2444  C2447   1.388   .     D
C2444  H2459   1.069   .     S
C2445  C2446   1.399   .     S
C2446  C2450   1.405   .     D
C2447  C2449   1.403   .     S
C2447  H2460   1.069   .     S
C2448  C2449   1.422   .     S
C2449  C2451   1.423   .     D
C2450  C2451   1.397   .     S
C2450  H2457   1.069   .     S
C2451  H2458   1.070   .     S
Cr2467 O2475   1.883   .     S
Cr2467 F2486   2.052   .     S
Cr2467 O3039   2.122   1_556 S
Cr2468 O2470   1.997   .     S
Cr2468 O3187   2.173   .     S
O2469  Cr2969  1.973   1_565 S
O2469  C3277   1.304   .     S
O2470  C3188   1.295   .     S
O2471  Cr2973  1.968   .     S
O2471  C3190   1.209   .     S
O2472  C2491   1.302   .     D
O2473  C2491   1.318   .     S
O2473  Cr3210  2.099   .     S
O2474  C2494   1.253   1_554 D
O2475  C2494   1.292   .     S
O2476  C2498   1.267   .     D
O2477  C2498   1.280   .     S
O2477  Cr2989  2.111   .     S
O2478  C2501   1.297   .     D
O2478  Cr3051  2.070   .     S
O2479  C2501   1.291   .     S
O2479  Cr3059  2.052   .     S
O2480  C3289   1.339   .     S
O2481  Cr3059  2.055   .     S
O2481  C3290   1.252   .     S
O2482  C2507   1.263   .     S
O2482  Cr3216  1.976   .     S
O2483  C2507   1.240   .     D
O2484  C2510   1.358   .     S
O2485  C2510   1.303   .     D
O2485  Cr2989  2.018   1_556 S
C2487  H2517   1.069   .     S
C2487  C3278   1.444   .     D
C2488  C2489   1.437   .     D
C2488  H2514   1.070   .     S
C2488  C3189   1.427   .     S
C2489  H2515   1.069   .     S
C2489  C3191   1.428   .     S
C2490  C2492   1.413   .     S
C2490  H2518   1.069   .     S
C2491  C2492   1.414   .     S
C2492  C2493   1.442   .     D
C2493  H2528   1.070   .     S
C2494  O2474   1.253   1_556 D
C2494  C2495   1.454   .     S
C2495  C2496   1.425   .     S
C2495  C3387   1.458   1_556 D
C2496  H2523   1.069   .     S
C2497  C2499   1.452   .     S
C2497  C2500   1.411   .     D
C2497  H2526   1.070   .     S
C2498  C2499   1.385   .     S
C2499  C2503   1.379   .     D
C2500  C2502   1.442   .     S
C2500  H2527   1.069   .     S
C2501  C2502   1.453   .     S
C2502  C2504   1.434   .     D
C2503  C2504   1.435   .     S
C2503  H2524   1.069   .     S
C2504  H2525   1.069   .     S
C2505  H2516   1.070   .     S
C2505  C3291   1.384   .     S
C2506  C2508   1.401   .     S
C2506  C2509   1.388   .     D
C2506  H2521   1.070   .     S
C2507  C2508   1.399   .     S
C2508  C2512   1.404   .     D
C2509  C2511   1.403   .     S
C2509  H2522   1.070   .     S
C2510  C2511   1.422   .     S
C2511  C2513   1.423   .     D
C2512  C2513   1.398   .     S
C2512  H2519   1.069   .     S
C2513  H2520   1.071   .     S
Cr2529 O2537   1.883   .     S
Cr2529 F2548   2.052   .     S
Cr2529 O3041   2.121   1_655 S
Cr2530 O2532   1.997   .     S
Cr2530 O3193   2.174   .     S
O2531  Cr2971  1.973   .     S
O2531  C3279   1.304   .     D
O2532  C3194   1.293   .     S
O2533  C3196   1.209   .     D
O2534  C2553   1.303   .     S
O2535  C2553   1.317   .     D
O2535  Cr3222  2.100   .     S
O2536  C2556   1.253   1_455 S
O2537  C2556   1.292   .     D
O2538  C2560   1.268   .     D
O2539  C2560   1.280   .     S
O2539  Cr2993  2.112   1_455 S
O2540  C2563   1.297   .     S
O2540  Cr3050  2.071   .     S
O2541  C2563   1.290   .     D
O2541  Cr3062  2.052   .     S
O2542  C3295   1.338   .     S
O2543  Cr3062  2.056   .     S
O2543  C3297   1.253   .     S
O2544  C2570   1.263   .     D
O2544  Cr3228  1.975   .     S
O2545  C2570   1.239   .     S
O2546  C2573   1.358   .     D
O2547  C2573   1.304   .     S
O2547  Cr2993  2.018   .     S
C2549  H2581   1.069   .     S
C2549  C3280   1.444   .     S
C2550  C2551   1.436   .     S
C2550  H2577   1.070   .     S
C2550  C3195   1.427   .     D
C2551  H2578   1.070   .     S
C2551  C3197   1.427   .     D
C2552  C2554   1.413   .     D
C2552  H2582   1.069   .     S
C2553  C2554   1.413   .     S
C2554  C2555   1.443   .     S
C2555  H2592   1.070   .     S
C2556  O2536   1.253   1_655 S
C2556  C2557   1.455   .     S
C2557  C2558   1.424   .     S
C2557  C3395   1.458   1_655 D
C2558  H2587   1.068   .     S
C2559  C2561   1.452   .     D
C2559  C2562   1.410   .     S
C2559  H2590   1.070   .     S
C2560  C2561   1.384   .     S
C2561  C2565   1.379   .     S
C2562  C2564   1.442   .     D
C2562  H2591   1.069   .     S
C2563  C2564   1.454   .     S
C2564  C2566   1.433   .     S
C2565  C2566   1.436   .     D
C2565  H2588   1.070   .     S
C2566  H2589   1.069   .     S
C2567  C2568   1.448   1_655 S
C2567  H2579   1.070   .     S
C2567  C3296   1.391   .     D
C2568  C2567   1.448   1_455 S
C2568  H2580   1.069   .     S
C2568  C3298   1.384   .     D
C2569  C2571   1.401   .     S
C2569  C2572   1.388   .     D
C2569  H2585   1.069   .     S
C2570  C2571   1.399   .     S
C2571  C2575   1.404   .     D
C2572  C2574   1.403   .     S
C2572  H2586   1.070   .     S
C2573  C2574   1.421   .     S
C2574  C2576   1.423   .     D
C2575  C2576   1.398   .     S
C2575  H2583   1.070   .     S
C2576  H2584   1.071   .     S
Cr2593 O2600   1.884   .     S
Cr2593 F2611   2.053   .     S
Cr2593 O3037   2.121   .     S
Cr2594 O2595   1.996   .     S
Cr2594 O3199   2.173   .     S
O2595  C3200   1.294   .     D
O2596  Cr2971  1.968   .     S
O2596  C3202   1.209   .     S
O2597  C2615   1.302   .     D
O2598  C2615   1.318   .     S
O2598  Cr3228  2.100   .     S
O2599  C2619   1.253   .     S
O2600  C2619   1.292   .     D
O2601  C2623   1.269   .     S
O2602  C2623   1.280   .     D
O2602  Cr2991  2.111   .     S
O2603  C2626   1.296   .     S
O2603  Cr3050  2.071   .     S
O2604  C2626   1.291   .     D
O2604  Cr3058  2.052   .     S
O2605  C3285   1.339   .     D
O2606  Cr3058  2.055   .     S
O2606  C3287   1.253   .     D
O2607  C2633   1.263   .     D
O2607  Cr3222  1.976   .     S
O2608  C2633   1.241   .     S
O2609  C2636   1.359   .     D
O2610  C2636   1.303   .     S
O2610  Cr2991  2.019   .     S
C2612  C2613   1.436   .     D
C2612  H2640   1.070   .     S
C2612  C3201   1.426   .     S
C2613  H2641   1.069   .     S
C2613  C3203   1.428   .     S
C2614  C2616   1.414   .     S
C2614  H2644   1.068   .     S
C2615  C2616   1.413   .     S
C2616  C2617   1.442   .     D
C2617  H2655   1.069   .     S
C2618  C2620   1.457   .     S
C2618  H2649   1.070   .     S
C2619  C2620   1.454   .     S
C2620  C2621   1.425   .     D
C2621  H2650   1.069   .     S
C2622  C2624   1.452   .     S
C2622  C2625   1.411   .     D
C2622  H2653   1.069   .     S
C2623  C2624   1.384   .     S
C2624  C2628   1.380   .     D
C2625  C2627   1.441   .     S
C2625  H2654   1.069   .     S
C2626  C2627   1.453   .     S
C2627  C2629   1.435   .     D
C2628  C2629   1.435   .     S
C2628  H2651   1.069   .     S
C2629  H2652   1.070   .     S
C2630  C2631   1.449   .     D
C2630  H2642   1.069   .     S
C2630  C3286   1.390   .     S
C2631  H2643   1.069   .     S
C2631  C3288   1.384   .     S
C2632  C2634   1.402   .     S
C2632  C2635   1.387   .     D
C2632  H2647   1.069   .     S
C2633  C2634   1.398   .     S
C2634  C2638   1.404   .     D
C2635  C2637   1.404   .     S
C2635  H2648   1.070   .     S
C2636  C2637   1.421   .     S
C2637  C2639   1.423   .     D
C2638  C2639   1.397   .     S
C2638  H2645   1.070   .     S
C2639  H2646   1.070   .     S
Cr2656 O2663   1.883   .     S
Cr2656 O3035   2.121   .     S
Cr2657 O2658   1.998   .     S
Cr2657 O3205   2.174   .     S
O2658  C3206   1.294   .     S
O2659  Cr2969  1.968   .     S
O2659  C3208   1.210   .     D
O2660  C2677   1.302   .     S
O2661  C2677   1.318   .     D
O2661  Cr3216  2.100   .     S
O2662  C2680   1.252   1_545 S
O2663  C2680   1.291   .     D
O2664  C2684   1.268   .     S
O2665  C2684   1.280   .     D
O2665  Cr2995  2.111   .     S
O2666  C2687   1.296   .     D
O2666  Cr3051  2.072   .     S
O2667  C2687   1.290   .     S
O2667  Cr3060  2.052   .     S
O2668  C3292   1.339   .     S
O2669  Cr3060  2.055   .     S
O2669  C3293   1.253   .     S
O2670  C2693   1.263   .     S
O2670  Cr3210  1.976   .     S
O2671  C2693   1.240   .     D
O2672  C2696   1.359   .     D
O2673  C2696   1.303   .     S
O2673  Cr2995  2.018   1_565 S
C2674  C2675   1.437   .     D
C2674  H2700   1.070   .     S
C2674  C3207   1.427   .     S
C2675  H2701   1.069   .     S
C2675  C3209   1.428   .     S
C2676  C2678   1.414   .     D
C2676  H2703   1.070   .     S
C2677  C2678   1.413   .     S
C2678  C2679   1.442   .     S
C2679  H2713   1.070   .     S
C2680  O2662   1.252   1_565 S
C2680  C2681   1.454   .     S
C2681  C2682   1.425   .     S
C2681  C3391   1.457   1_565 D
C2682  H2708   1.069   .     S
C2683  C2685   1.452   .     D
C2683  C2686   1.411   .     S
C2683  H2711   1.070   .     S
C2684  C2685   1.384   .     S
C2685  C2689   1.379   .     S
C2686  C2688   1.442   .     D
C2686  H2712   1.068   .     S
C2687  C2688   1.453   .     S
C2688  C2690   1.434   .     S
C2689  C2690   1.437   .     D
C2689  H2709   1.069   .     S
C2690  H2710   1.069   .     S
C2691  H2702   1.070   .     S
C2691  C3294   1.384   .     D
C2692  C2694   1.401   .     D
C2692  C2695   1.388   .     S
C2692  H2706   1.069   .     S
C2693  C2694   1.399   .     S
C2694  C2698   1.404   .     S
C2695  C2697   1.404   .     D
C2695  H2707   1.069   .     S
C2696  C2697   1.421   .     S
C2697  C2699   1.423   .     S
C2698  C2699   1.398   .     D
C2698  H2704   1.069   .     S
C2699  H2705   1.070   .     S
Cr2714 O2722   1.885   .     S
Cr2714 O3033   2.122   1_556 S
Cr2715 O2717   1.997   .     S
Cr2715 F2733   1.938   .     S
Cr2715 O3211   2.173   .     S
O2716  Cr2967  1.973   .     S
O2716  C3281   1.304   .     S
O2717  C3212   1.294   .     S
O2718  C3214   1.209   .     D
O2719  C2738   1.303   .     D
O2720  C2738   1.318   .     S
O2720  Cr3162  2.099   .     S
O2721  C2741   1.253   1_554 D
O2722  C2741   1.292   .     S
O2723  C2745   1.268   .     D
O2724  C2745   1.280   .     S
O2724  Cr3011  2.111   .     S
O2725  C2748   1.297   .     D
O2725  Cr3053  2.071   .     S
O2726  C2748   1.291   .     S
O2726  Cr3073  2.052   .     S
O2727  C3323   1.339   .     S
O2728  Cr3073  2.055   .     S
O2728  C3325   1.253   .     S
O2729  C2755   1.263   .     D
O2729  Cr3168  1.975   .     S
O2730  C2755   1.240   .     S
O2731  C2758   1.358   .     S
O2732  C2758   1.303   .     D
O2732  Cr3011  2.018   1_556 S
C2734  H2766   1.068   .     S
C2734  C3282   1.444   .     D
C2735  C2736   1.438   .     D
C2735  H2762   1.071   .     S
C2735  C3213   1.426   .     S
C2736  H2763   1.068   .     S
C2736  C3215   1.428   .     S
C2737  C2739   1.413   .     S
C2737  H2767   1.069   .     S
C2738  C2739   1.414   .     S
C2739  C2740   1.442   .     D
C2740  H2777   1.069   .     S
C2741  O2721   1.253   1_556 D
C2741  C2742   1.454   .     S
C2742  C2743   1.425   .     S
C2742  C3451   1.457   1_556 D
C2743  H2772   1.069   .     S
C2744  C2746   1.452   .     D
C2744  C2747   1.411   .     S
C2744  H2775   1.070   .     S
C2745  C2746   1.384   .     S
C2746  C2750   1.380   .     S
C2747  C2749   1.441   .     D
C2747  H2776   1.069   .     S
C2748  C2749   1.453   .     S
C2749  C2751   1.434   .     S
C2750  C2751   1.435   .     D
C2750  H2773   1.069   .     S
C2751  H2774   1.069   .     S
C2752  C2753   1.448   1_556 D
C2752  H2764   1.069   .     S
C2752  C3324   1.391   .     S
C2753  C2752   1.448   1_554 D
C2753  H2765   1.070   .     S
C2753  C3326   1.384   .     S
C2754  C2756   1.401   .     S
C2754  C2757   1.388   .     D
C2754  H2770   1.070   .     S
C2755  C2756   1.398   .     S
C2756  C2760   1.405   .     D
C2757  C2759   1.402   .     S
C2757  H2771   1.069   .     S
C2758  C2759   1.422   .     S
C2759  C2761   1.423   .     D
C2760  C2761   1.397   .     S
C2760  H2768   1.069   .     S
C2761  H2769   1.071   .     S
Cr2778 O2786   1.883   .     S
Cr2778 O3030   2.121   1_565 S
Cr2779 O2781   1.998   .     S
Cr2779 O3217   2.174   .     S
O2780  Cr2966  1.973   1_655 S
O2780  C3283   1.304   .     S
O2781  C3218   1.294   .     D
O2782  Cr2968  1.968   .     S
O2782  C3220   1.209   .     S
O2783  C2801   1.302   .     S
O2784  C2801   1.318   .     D
O2784  Cr3174  2.099   .     S
O2785  C2804   1.252   1_545 D
O2786  C2804   1.292   .     S
O2787  C2808   1.268   .     S
O2788  C2808   1.280   .     D
O2788  Cr3006  2.111   1_545 S
O2789  C2811   1.297   .     S
O2789  Cr3052  2.072   .     S
O2790  C2811   1.290   .     D
O2790  Cr3070  2.051   .     S
O2791  C3317   1.339   .     D
O2792  Cr3070  2.055   .     S
O2792  C3318   1.253   .     D
O2793  C2817   1.263   .     D
O2793  Cr3180  1.975   .     S
O2794  C2817   1.240   .     S
O2795  C2820   1.358   .     D
O2796  C2820   1.304   .     S
O2796  Cr3006  2.018   .     S
C2797  H2827   1.069   .     S
C2797  C3284   1.444   .     S
C2798  C2799   1.438   .     D
C2798  H2824   1.070   .     S
C2798  C3219   1.427   .     S
C2799  H2825   1.070   .     S
C2799  C3221   1.428   .     S
C2800  C2802   1.414   .     S
C2800  H2828   1.069   .     S
C2801  C2802   1.413   .     S
C2802  C2803   1.442   .     D
C2803  H2838   1.070   .     S
C2804  O2785   1.252   1_565 D
C2804  C2805   1.455   .     S
C2805  C2806   1.425   .     S
C2805  C3443   1.457   1_565 D
C2806  H2833   1.070   .     S
C2807  C2809   1.452   .     S
C2807  C2810   1.410   .     D
C2807  H2836   1.070   .     S
C2808  C2809   1.385   .     S
C2809  C2813   1.378   .     D
C2810  C2812   1.442   .     S
C2810  H2837   1.069   .     S
C2811  C2812   1.454   .     S
C2812  C2814   1.434   .     D
C2813  C2814   1.435   .     S
C2813  H2834   1.070   .     S
C2814  H2835   1.070   .     S
C2815  H2826   1.069   .     S
C2815  C3319   1.383   .     D
C2816  C2818   1.401   .     S
C2816  C2819   1.387   .     D
C2816  H2831   1.070   .     S
C2817  C2818   1.399   .     S
C2818  C2822   1.404   .     D
C2819  C2821   1.403   .     S
C2819  H2832   1.071   .     S
C2820  C2821   1.421   .     S
C2821  C2823   1.423   .     D
C2822  C2823   1.399   .     S
C2822  H2829   1.069   .     S
C2823  H2830   1.070   .     S
Cr2839 O2846   1.884   .     S
Cr2839 F2858   2.053   .     S
Cr2839 O3026   2.122   .     S
Cr2840 O2841   1.998   .     S
Cr2840 F2857   1.937   .     S
Cr2840 O3223   2.173   .     S
O2841  C3224   1.294   .     D
O2842  Cr2966  1.968   .     S
O2842  C3226   1.209   .     S
O2843  C2862   1.303   .     S
O2844  C2862   1.318   .     D
O2844  Cr3180  2.100   .     S
O2845  C2865   1.253   1_455 S
O2846  C2865   1.292   .     D
O2847  C2869   1.268   .     D
O2848  C2869   1.281   .     S
O2848  Cr3013  2.112   .     S
O2849  C2872   1.296   .     S
O2849  Cr3052  2.071   .     S
O2850  C2872   1.290   .     D
O2850  Cr3072  2.052   .     S
O2851  C3320   1.339   .     S
O2852  Cr3072  2.055   .     S
O2852  C3321   1.252   .     S
O2853  C2878   1.263   .     D
O2853  Cr3174  1.976   .     S
O2854  C2878   1.240   .     S
O2855  C2881   1.359   .     D
O2856  C2881   1.304   .     S
O2856  Cr3013  2.019   1_655 S
C2859  C2860   1.436   .     D
C2859  H2885   1.071   .     S
C2859  C3225   1.427   .     S
C2860  H2886   1.069   .     S
C2860  C3227   1.428   .     S
C2861  C2863   1.414   .     S
C2861  H2888   1.069   .     S
C2862  C2863   1.412   .     S
C2863  C2864   1.442   .     D
C2864  H2898   1.070   .     S
C2865  O2845   1.253   1_655 S
C2865  C2866   1.454   .     S
C2866  C2867   1.425   .     S
C2866  C3447   1.458   1_655 D
C2867  H2893   1.069   .     S
C2868  C2870   1.452   .     S
C2868  C2871   1.410   .     D
C2868  H2896   1.070   .     S
C2869  C2870   1.384   .     S
C2870  C2874   1.380   .     D
C2871  C2873   1.440   .     S
C2871  H2897   1.069   .     S
C2872  C2873   1.454   .     S
C2873  C2875   1.435   .     D
C2874  C2875   1.435   .     S
C2874  H2894   1.070   .     S
C2875  H2895   1.069   .     S
C2876  H2887   1.069   .     S
C2876  C3322   1.384   .     S
C2877  C2879   1.401   .     D
C2877  C2880   1.387   .     S
C2877  H2891   1.070   .     S
C2878  C2879   1.399   .     S
C2879  C2883   1.405   .     S
C2880  C2882   1.403   .     D
C2880  H2892   1.070   .     S
C2881  C2882   1.421   .     S
C2882  C2884   1.423   .     S
C2883  C2884   1.397   .     D
C2883  H2889   1.069   .     S
C2884  H2890   1.071   .     S
Cr2899 O2906   1.884   .     S
Cr2899 F2917   2.052   .     S
Cr2899 O3028   2.121   .     S
Cr2900 O2901   1.998   .     S
Cr2900 O3229   2.173   .     S
O2901  C3230   1.294   .     D
O2902  Cr2967  1.968   .     S
O2902  C3232   1.209   .     S
O2903  C2921   1.303   .     D
O2904  C2921   1.318   .     S
O2904  Cr3168  2.099   .     S
O2905  C2925   1.253   .     S
O2906  C2925   1.292   .     D
O2907  C2929   1.268   .     D
O2908  C2929   1.280   .     S
O2908  Cr3008  2.111   .     S
O2909  C2932   1.296   .     D
O2909  Cr3053  2.072   .     S
O2910  C2932   1.290   .     S
O2910  Cr3069  2.052   .     S
O2911  C3313   1.339   .     D
O2912  Cr3069  2.056   .     S
O2912  C3315   1.252   .     S
O2913  C2939   1.264   .     S
O2913  Cr3162  1.975   .     S
O2914  C2939   1.240   .     D
O2915  C2942   1.359   .     S
O2916  C2942   1.303   .     D
O2916  Cr3008  2.018   .     S
C2918  C2919   1.437   .     S
C2918  H2946   1.070   .     S
C2918  C3231   1.427   .     D
C2919  H2947   1.069   .     S
C2919  C3233   1.428   .     D
C2920  C2922   1.414   .     D
C2920  H2950   1.070   .     S
C2921  C2922   1.413   .     S
C2922  C2923   1.442   .     S
C2923  H2961   1.070   .     S
C2924  C2926   1.457   .     S
C2924  H2955   1.070   .     S
C2925  C2926   1.454   .     S
C2926  C2927   1.424   .     D
C2927  H2956   1.069   .     S
C2928  C2930   1.452   .     D
C2928  C2931   1.411   .     S
C2928  H2959   1.070   .     S
C2929  C2930   1.384   .     S
C2930  C2934   1.379   .     S
C2931  C2933   1.442   .     D
C2931  H2960   1.069   .     S
C2932  C2933   1.453   .     S
C2933  C2935   1.435   .     S
C2934  C2935   1.436   .     D
C2934  H2957   1.069   .     S
C2935  H2958   1.069   .     S
C2936  C2937   1.448   .     D
C2936  H2948   1.070   .     S
C2936  C3314   1.390   .     S
C2937  H2949   1.070   .     S
C2937  C3316   1.384   .     S
C2938  C2940   1.401   .     S
C2938  C2941   1.388   .     D
C2938  H2953   1.070   .     S
C2939  C2940   1.399   .     S
C2940  C2944   1.404   .     D
C2941  C2943   1.403   .     S
C2941  H2954   1.069   .     S
C2942  C2943   1.422   .     S
C2943  C2945   1.423   .     D
C2944  C2945   1.398   .     S
C2944  H2951   1.069   .     S
C2945  H2952   1.070   .     S
Cr2962 O2407   1.972   1_554 S
Cr2962 O3239   1.948   .     S
Cr2962 O3400   1.973   1_554 S
Cr2963 O3238   1.949   .     S
Cr2964 O369    1.973   1_455 S
Cr2964 F2965   1.768   .     S
Cr2964 O3240   1.948   .     S
Cr2964 O3375   1.972   1_455 S
Cr2966 O2780   1.973   1_455 S
Cr2966 O3240   1.949   .     S
Cr2966 O3428   1.973   1_455 S
Cr2967 O3238   1.948   .     S
Cr2968 O617    1.973   1_545 S
Cr2968 O3241   1.949   .     S
Cr2968 O3403   1.973   1_545 S
Cr2969 O2469   1.973   1_545 S
Cr2969 F2970   1.768   .     S
Cr2969 O3241   1.948   .     S
Cr2969 O3372   1.972   1_545 S
Cr2971 F2972   1.767   .     S
Cr2971 O3238   1.948   .     S
Cr2973 O123    1.973   1_554 S
Cr2973 F2974   1.766   .     S
Cr2973 O3239   1.949   .     S
Cr2973 O3434   1.972   1_554 S
Cr2975 O3235   1.948   .     S
Cr2976 O1604   1.973   1_556 S
Cr2976 O3234   1.949   .     S
Cr2976 O3492   1.973   1_556 S
Cr2977 O990    1.973   1_565 S
Cr2977 O3237   1.948   .     S
Cr2977 O3462   1.973   1_565 S
Cr2978 O1299   1.972   1_655 S
Cr2978 O3236   1.948   .     S
Cr2978 O3498   1.973   1_655 S
Cr2979 O2096   1.972   1_565 S
Cr2979 F2980   1.767   .     S
Cr2979 O3237   1.949   .     S
Cr2979 O3517   1.973   1_565 S
Cr2981 O3235   1.948   .     S
Cr2982 O3237   1.948   .     S
Cr2983 O928    1.973   1_556 S
Cr2983 F2984   1.767   .     S
Cr2983 O3234   1.948   .     S
Cr2983 O3526   1.974   1_556 S
Cr2985 F2986   1.767   .     S
Cr2985 O3235   1.948   .     S
Cr2987 F2988   1.767   .     S
Cr2987 O3236   1.948   .     S
Cr2989 O2485   2.018   1_554 S
Cr2989 O1858   2.112   1_554 S
Cr2989 O2990   2.018   .     S
O2990  Cr63    2.122   1_554 S
Cr2991 O2992   2.019   .     S
Cr2993 O1806   2.018   1_655 S
Cr2993 O2539   2.112   1_655 S
Cr2993 O2994   2.019   1_655 S
O2994  Cr2993  2.019   1_455 S
O2994  Cr183   2.121   1_455 S
Cr2995 O1920   2.112   1_545 S
Cr2995 O2673   2.018   1_545 S
Cr2995 O2996   2.019   1_545 S
O2996  Cr862   2.121   1_565 S
O2996  Cr2995  2.019   1_565 S
Cr2997 O2415   2.111   1_655 S
Cr2997 O2112   2.018   1_655 S
Cr2997 O2998   2.019   .     S
O2998  Cr1358  2.122   1_655 S
Cr2999 O3000   2.019   .     S
Cr3001 O2360   2.019   1_545 S
Cr3001 O2044   2.111   1_545 S
Cr3001 O3002   2.019   .     S
O3002  Cr428   2.121   1_545 S
Cr3003 O2237   2.019   1_554 S
Cr3003 O2166   2.111   1_554 S
Cr3003 O3004   2.019   .     S
Cr3003 F3005   2.114   .     S
O3004  Cr367   2.122   1_554 S
Cr3006 O2788   2.111   1_565 S
Cr3006 O1620   2.019   1_565 S
Cr3006 O3007   2.020   1_565 S
Cr3006 F3537   2.114   1_565 S
O3007  Cr3006  2.020   1_545 S
O3007  Cr556   2.121   1_545 S
Cr3008 O3009   2.018   .     S
Cr3008 F3010   2.114   .     S
Cr3011 O1552   2.112   1_554 S
Cr3011 O2732   2.018   1_554 S
Cr3011 O3012   2.020   .     S
O3012  Cr676   2.122   1_554 S
Cr3013 O1673   2.111   1_455 S
Cr3013 O2856   2.019   1_455 S
Cr3013 O3014   2.020   1_455 S
Cr3013 F3538   2.114   1_455 S
O3014  Cr1049  2.121   1_655 S
O3014  Cr3013  2.020   1_655 S
Cr3015 O998    2.111   1_554 S
Cr3015 O385    2.018   1_554 S
Cr3015 O3016   2.020   .     S
Cr3015 F3017   2.114   .     S
O3016  Cr2220  2.122   1_554 S
Cr3018 O3019   2.019   .     S
Cr3020 O1059   2.111   1_455 S
Cr3020 O326    2.018   1_455 S
Cr3020 O3021   2.019   1_455 S
Cr3020 F3022   2.114   .     S
O3021  Cr1663  2.121   1_655 S
O3021  Cr3020  2.019   1_655 S
Cr3023 O1192   2.018   1_565 S
Cr3023 O438    2.112   1_565 S
Cr3023 O3024   2.019   1_565 S
Cr3023 F3539   2.114   1_565 S
O3024  Cr3023  2.019   1_545 S
O3024  Cr2342  2.122   1_545 S
Cr3025 O625    2.112   1_655 S
Cr3025 O944    2.018   1_655 S
Cr3025 O3026   2.019   .     S
O3026  Cr1789  2.121   1_655 S
Cr3027 O3028   2.019   .     S
Cr3029 O872    2.111   1_545 S
Cr3029 O573    2.019   1_545 S
Cr3029 O3030   2.019   .     S
Cr3029 F3031   2.114   .     S
O3030  Cr2778  2.121   1_545 S
Cr3032 O694    2.019   1_554 S
Cr3032 O749    2.111   1_554 S
Cr3032 O3033   2.019   .     S
O3033  Cr2714  2.122   1_554 S
Cr3034 O139    2.018   1_545 S
Cr3034 O1307   2.112   1_545 S
Cr3034 O3035   2.019   1_545 S
O3035  Cr2035  2.121   1_565 S
O3035  Cr3034  2.019   1_565 S
Cr3036 O3037   2.020   .     S
Cr3038 O80     2.018   1_554 S
Cr3038 O1244   2.111   1_554 S
Cr3038 O3039   2.019   .     S
O3039  Cr2467  2.122   1_554 S
Cr3040 O193    2.112   1_655 S
Cr3040 O1375   2.018   1_655 S
Cr3040 O3041   2.018   1_655 S
O3041  Cr3040  2.018   1_455 S
O3041  Cr2529  2.121   1_455 S
Cr3042 O3242   1.966   .     S
Cr3043 O3243   1.965   .     S
Cr3044 O3244   1.965   .     S
Cr3045 O3245   1.966   .     S
Cr3046 F3047   1.941   .     S
Cr3046 O3246   1.966   .     S
Cr3048 F3049   1.941   .     S
Cr3048 O3247   1.965   .     S
Cr3050 O3248   1.966   .     S
Cr3051 O3249   1.966   .     S
Cr3052 O3250   1.966   .     S
Cr3053 F3054   1.941   .     S
Cr3053 O3251   1.966   .     S
Cr3055 O3252   1.966   .     S
Cr3056 F3057   1.941   .     S
Cr3056 O3253   1.966   .     S
Cr3058 O3248   1.933   .     S
Cr3059 O3249   1.933   .     S
Cr3060 F3061   1.968   .     S
Cr3060 O3249   1.933   .     S
Cr3062 F3063   1.968   .     S
Cr3062 O3248   1.932   .     S
Cr3064 O3252   1.932   .     S
Cr3065 O3253   1.933   .     S
Cr3066 O3253   1.932   .     S
Cr3067 F3068   1.967   .     S
Cr3067 O3252   1.933   .     S
Cr3069 O3251   1.933   .     S
Cr3070 F3071   1.968   .     S
Cr3070 O3250   1.932   .     S
Cr3072 O3250   1.932   .     S
Cr3073 O3251   1.933   .     S
Cr3074 O3242   1.932   .     S
Cr3075 O3243   1.932   .     S
Cr3076 F3077   1.967   .     S
Cr3076 O3243   1.933   .     S
Cr3078 F3079   1.967   .     S
Cr3078 O3242   1.933   .     S
Cr3080 O3246   1.933   .     S
Cr3081 O3247   1.933   .     S
Cr3082 O3247   1.933   .     S
Cr3083 O3246   1.932   .     S
Cr3084 O3245   1.933   .     S
Cr3085 F3086   1.967   .     S
Cr3085 O3244   1.933   .     S
Cr3087 O3244   1.933   .     S
Cr3088 F3089   1.968   .     S
Cr3088 O3245   1.932   .     S
Cr3090 O3091   2.067   .     S
Cr3090 F3260   1.923   .     S
C3092  C3093   1.403   .     S
C3094  C3095   1.431   .     S
Cr3096 O3097   2.066   .     S
C3098  C3099   1.403   .     S
C3100  C3101   1.431   .     S
Cr3102 O3103   2.066   .     S
C3104  C3105   1.403   .     S
C3106  C3107   1.432   .     S
Cr3108 O3109   2.067   .     S
C3110  C3111   1.402   .     S
C3112  C3113   1.430   .     S
Cr3114 O3115   2.067   .     S
C3116  C3117   1.403   .     S
C3118  C3119   1.431   .     S
Cr3120 O3121   2.067   .     S
C3122  C3123   1.403   .     S
C3124  C3125   1.431   .     S
Cr3126 O3127   2.067   .     S
Cr3126 F3258   1.923   .     S
C3128  C3129   1.403   .     S
C3130  C3131   1.431   .     S
Cr3132 O3133   2.067   .     S
Cr3132 F3259   1.923   .     S
C3134  C3135   1.403   .     S
C3136  C3137   1.431   .     S
Cr3138 O3139   2.067   .     S
C3140  C3141   1.403   .     S
C3142  C3143   1.431   .     S
Cr3144 O3145   2.066   .     S
C3146  C3147   1.403   .     S
C3148  C3149   1.432   .     S
Cr3150 O3151   2.067   .     S
C3152  C3153   1.402   .     S
C3154  C3155   1.431   .     S
Cr3156 O3157   2.066   .     S
C3158  C3159   1.403   .     S
C3160  C3161   1.431   .     S
Cr3162 O3163   2.066   .     S
C3164  C3165   1.403   .     S
C3166  C3167   1.431   .     S
Cr3168 O3169   2.067   .     S
Cr3168 F3256   1.923   .     S
C3170  C3171   1.402   .     S
C3172  C3173   1.431   .     S
Cr3174 O3175   2.067   .     S
Cr3174 F3257   1.922   .     S
C3176  C3177   1.403   .     S
C3178  C3179   1.431   .     S
Cr3180 O3181   2.067   .     S
C3182  C3183   1.403   .     S
C3184  C3185   1.432   .     S
Cr3186 O3187   2.067   .     S
Cr3186 F3254   1.923   .     S
C3188  C3189   1.403   .     S
C3190  C3191   1.431   .     S
Cr3192 O3193   2.067   .     S
Cr3192 F3255   1.923   .     S
C3194  C3195   1.403   .     S
C3196  C3197   1.431   .     S
Cr3198 O3199   2.067   .     S
C3200  C3201   1.402   .     S
C3202  C3203   1.431   .     S
Cr3204 O3205   2.066   .     S
C3206  C3207   1.403   .     S
C3208  C3209   1.431   .     S
Cr3210 O3211   2.067   .     S
C3212  C3213   1.403   .     S
C3214  C3215   1.431   .     S
Cr3216 O3217   2.067   .     S
C3218  C3219   1.403   .     S
C3220  C3221   1.431   .     S
Cr3222 O3223   2.067   .     S
C3224  C3225   1.403   .     S
C3226  C3227   1.431   .     S
Cr3228 O3229   2.067   .     S
C3230  C3231   1.403   .     S
C3232  C3233   1.432   .     S
C3261  C3262   1.360   .     S
C3263  C3264   1.360   .     S
C3265  C3266   1.360   .     S
C3267  C3268   1.361   .     S
C3269  C3270   1.361   .     S
C3271  C3272   1.360   .     S
C3273  C3274   1.360   .     S
C3275  C3276   1.361   .     S
C3277  C3278   1.360   .     S
C3279  C3280   1.360   .     S
C3281  C3282   1.360   .     S
C3283  C3284   1.361   .     S
C3285  C3286   1.424   .     S
C3287  C3288   1.478   .     S
C3290  C3291   1.478   .     S
C3293  C3294   1.478   .     S
C3295  C3296   1.423   .     S
C3297  C3298   1.478   .     S
C3299  C3300   1.424   .     S
C3301  C3302   1.478   .     S
C3304  C3305   1.478   .     S
C3307  C3308   1.478   .     S
C3309  C3310   1.424   .     S
C3311  C3312   1.478   .     S
C3313  C3314   1.423   .     S
C3315  C3316   1.478   .     S
C3318  C3319   1.478   .     S
C3321  C3322   1.478   .     S
C3323  C3324   1.423   .     S
C3325  C3326   1.478   .     S
C3328  C3329   1.478   .     S
C3330  C3331   1.425   .     S
C3332  C3333   1.478   .     S
C3334  C3335   1.424   .     S
C3336  C3337   1.478   .     S
C3339  C3340   1.477   .     S
C3342  C3343   1.478   .     S
C3344  C3345   1.423   .     S
C3346  C3347   1.478   .     S
C3348  C3349   1.423   .     S
C3350  C3351   1.479   .     S
C3353  C3354   1.477   .     S
C3355  C3356   1.424   .     S
C3357  C3358   1.478   .     S
C3360  C3361   1.478   .     S
C3363  C3364   1.478   .     S
C3365  C3366   1.424   .     S
C3367  C3368   1.477   .     S
O3369  C3381   1.304   .     S
C3370  H3371   1.069   .     S
C3370  C3379   1.409   .     D
C3370  C3382   1.444   .     S
O3372  Cr2969  1.972   1_565 S
O3372  C3383   1.304   .     D
C3373  H3374   1.068   .     S
C3373  C3376   1.409   .     S
C3373  C3384   1.444   .     D
O3375  Cr2964  1.972   1_655 S
O3375  C3381   1.304   .     D
C3376  H3377   1.069   .     S
C3376  C3382   1.444   .     D
O3378  C3383   1.304   .     S
C3379  H3380   1.069   .     S
C3379  C3384   1.444   .     S
C3381  C3382   1.360   .     S
C3383  C3384   1.360   .     S
C3385  C88     1.458   1_554 D
C3385  H3386   1.069   .     S
C3385  C3387   1.450   .     S
C3387  C2495   1.458   1_554 D
C3387  H3388   1.070   .     S
C3389  C149    1.457   1_545 D
C3389  H3390   1.070   .     S
C3389  C3391   1.450   .     S
C3391  C2681   1.457   1_545 D
C3391  H3392   1.069   .     S
C3393  C210    1.457   1_455 D
C3393  H3394   1.069   .     S
C3393  C3395   1.450   .     S
C3395  C2557   1.458   1_455 D
C3395  H3396   1.069   .     S
O3397  C3409   1.304   .     D
C3398  H3399   1.069   .     S
C3398  C3407   1.409   .     D
C3398  C3410   1.444   .     S
O3400  Cr2962  1.973   1_556 S
O3400  C3411   1.304   .     D
C3401  H3402   1.069   .     S
C3401  C3404   1.409   .     S
C3401  C3412   1.444   .     D
O3403  Cr2968  1.973   1_565 S
O3403  C3409   1.304   .     S
C3404  H3405   1.069   .     S
C3404  C3410   1.444   .     D
O3406  C3411   1.304   .     S
C3407  H3408   1.068   .     S
C3407  C3412   1.444   .     S
C3409  C3410   1.360   .     S
C3411  C3412   1.361   .     S
C3413  C334    1.457   1_455 D
C3413  H3414   1.069   .     S
C3413  C3415   1.450   .     S
C3415  C2433   1.458   1_455 D
C3415  H3416   1.069   .     S
C3417  C394    1.457   1_554 D
C3417  H3418   1.069   .     S
C3417  C3419   1.451   .     S
C3419  C2246   1.458   1_554 D
C3419  H3420   1.069   .     S
C3421  C457    1.458   1_545 D
C3421  H3422   1.069   .     S
C3421  C3423   1.450   .     S
C3423  C2369   1.458   1_545 D
C3423  H3424   1.069   .     S
O3425  C3439   1.303   .     S
C3426  H3427   1.069   .     S
C3426  C3432   1.409   .     S
C3426  C3440   1.444   .     D
O3428  Cr2966  1.973   1_655 S
O3428  C3437   1.304   .     D
C3429  H3430   1.070   .     S
C3429  C3435   1.409   .     D
C3429  C3438   1.444   .     S
O3431  C3437   1.303   .     S
C3432  H3433   1.069   .     S
C3432  C3438   1.444   .     D
O3434  Cr2973  1.972   1_556 S
O3434  C3439   1.304   .     D
C3435  H3436   1.068   .     S
C3435  C3440   1.444   .     S
C3437  C3438   1.360   .     S
C3439  C3440   1.361   .     S
C3441  C582    1.458   1_545 D
C3441  H3442   1.069   .     S
C3441  C3443   1.451   .     S
C3443  C2805   1.457   1_545 D
C3443  H3444   1.069   .     S
C3445  C642    1.457   1_455 D
C3445  H3446   1.069   .     S
C3445  C3447   1.451   .     S
C3447  C2866   1.458   1_455 D
C3447  H3448   1.069   .     S
C3449  C704    1.458   1_554 D
C3449  H3450   1.069   .     S
C3449  C3451   1.451   .     S
C3451  C2742   1.457   1_554 D
C3451  H3452   1.069   .     S
O3453  C3465   1.304   .     D
C3454  H3455   1.069   .     S
C3454  C3463   1.409   .     S
C3454  C3466   1.444   .     D
O3456  C3467   1.304   .     D
C3457  H3458   1.069   .     S
C3457  C3460   1.409   .     D
C3457  C3468   1.443   .     S
O3459  C3465   1.304   .     S
C3460  H3461   1.069   .     S
C3460  C3466   1.444   .     S
O3462  Cr2977  1.973   1_545 S
O3462  C3467   1.303   .     S
C3463  H3464   1.069   .     S
C3463  C3468   1.444   .     D
C3465  C3466   1.360   .     S
C3467  C3468   1.361   .     S
C3469  C766    1.458   1_556 D
C3469  H3470   1.069   .     S
C3469  C3471   1.450   .     S
C3471  C1876   1.458   1_556 D
C3471  H3472   1.069   .     S
C3473  C890    1.457   1_565 D
C3473  H3474   1.070   .     S
C3473  C3475   1.450   .     S
C3475  C1937   1.457   1_565 D
C3475  H3476   1.069   .     S
C3477  C954    1.457   1_655 D
C3477  H3478   1.069   .     S
C3477  C3479   1.450   .     S
C3479  C1815   1.458   1_655 D
C3479  H3480   1.069   .     S
C3481  C1015   1.458   1_556 D
C3481  H3482   1.069   .     S
C3481  C3483   1.450   .     S
C3483  C1569   1.458   1_556 D
C3483  H3484   1.070   .     S
C3485  C1076   1.457   1_655 D
C3485  H3486   1.070   .     S
C3485  C3487   1.451   .     S
C3487  C1691   1.457   1_655 D
C3487  H3488   1.069   .     S
O3489  C3503   1.304   .     D
C3490  H3491   1.068   .     S
C3490  C3496   1.408   .     D
C3490  C3504   1.444   .     S
O3492  Cr2976  1.973   1_554 S
O3492  C3501   1.304   .     D
C3493  H3494   1.069   .     S
C3493  C3499   1.408   .     S
C3493  C3502   1.444   .     D
O3495  C3501   1.303   .     S
C3496  H3497   1.069   .     S
C3496  C3502   1.445   .     S
O3498  Cr2978  1.973   1_455 S
O3498  C3503   1.303   .     S
C3499  H3500   1.068   .     S
C3499  C3504   1.444   .     D
C3501  C3502   1.360   .     S
C3503  C3504   1.360   .     S
C3505  C1201   1.458   1_565 D
C3505  H3506   1.070   .     S
C3505  C3507   1.450   .     S
C3507  C1629   1.458   1_565 D
C3507  H3508   1.069   .     S
C3509  C1261   1.457   1_556 D
C3509  H3510   1.069   .     S
C3509  C3511   1.450   .     S
C3511  C2184   1.458   1_556 D
C3511  H3512   1.070   .     S
C3513  C1324   1.458   1_565 D
C3513  H3514   1.069   .     S
C3513  C3515   1.450   .     S
C3515  C2061   1.457   1_565 D
C3515  H3516   1.070   .     S
O3517  Cr2979  1.973   1_545 S
O3517  C3529   1.304   .     D
C3518  H3519   1.069   .     S
C3518  C3527   1.408   .     D
C3518  C3530   1.444   .     S
O3520  C3531   1.304   .     S
C3521  H3522   1.069   .     S
C3521  C3524   1.408   .     S
C3521  C3532   1.444   .     D
O3523  C3529   1.304   .     S
C3524  H3525   1.069   .     S
C3524  C3530   1.444   .     D
O3526  Cr2983  1.974   1_554 S
O3526  C3531   1.304   .     D
C3527  H3528   1.069   .     S
C3527  C3532   1.444   .     S
C3529  C3530   1.360   .     S
C3531  C3532   1.359   .     S
C3533  C1384   1.458   1_655 D
C3533  H3534   1.069   .     S
C3533  C3535   1.450   .     S
C3535  C2122   1.457   1_655 D
C3535  H3536   1.069   .     S
F3537  Cr3006  2.114   1_545 S
F3538  Cr3013  2.114   1_655 S
F3539  Cr3023  2.114   1_545 S
Si3540 O3546   1.676   .     S
Si3540 O3547   1.675   .     S
Si3540 C3548   1.865   .     S
Si3540 C3549   1.854   .     S
Si3541 O3544   1.676   .     S
Si3541 O3545   1.677   .     S
Si3541 C3550   1.863   .     S
Si3541 C3551   1.808   .     S
Si3542 O3545   1.675   .     S
Si3542 O3546   1.676   .     S
Si3542 C3552   1.818   .     S
Si3542 C3553   1.802   .     S
Si3543 O3544   1.676   .     S
Si3543 O3547   1.676   .     S
Si3543 C3554   1.798   .     S
Si3543 C3555   1.810   .     S
C3548  H3556   1.119   .     S
C3548  H3557   1.133   .     S
C3548  H3558   1.092   .     S
C3549  H3559   1.129   .     S
C3549  H3560   1.105   .     S
C3549  H3561   1.144   .     S
C3550  H3562   1.111   .     S
C3550  H3563   1.101   .     S
C3550  H3564   1.089   .     S
C3551  H3565   1.085   .     S
C3551  H3566   1.122   .     S
C3551  H3567   1.142   .     S
C3552  H3568   1.122   .     S
C3552  H3569   1.116   .     S
C3552  H3570   1.107   .     S
C3553  H3571   1.099   .     S
C3553  H3572   1.086   .     S
C3553  H3573   1.134   .     S
C3554  H3574   1.135   .     S
C3554  H3575   1.097   .     S
C3554  H3576   1.108   .     S
C3555  H3577   1.089   .     S
C3555  H3578   1.121   .     S
C3555  H3579   1.022   .     S
Si3580 O3586   1.676   .     S
Si3580 O3587   1.676   .     S
Si3580 C3588   1.841   .     S
Si3580 C3589   1.862   .     S
Si3581 O3584   1.676   .     S
Si3581 O3585   1.676   .     S
Si3581 C3590   1.809   .     S
Si3581 C3591   1.778   .     S
Si3582 O3585   1.676   .     S
Si3582 O3586   1.676   .     S
Si3582 C3592   1.854   .     S
Si3582 C3593   1.789   .     S
Si3583 O3584   1.676   .     S
Si3583 O3587   1.676   .     S
Si3583 C3594   1.834   .     S
Si3583 C3595   1.813   .     S
C3588  H3596   1.099   .     S
C3588  H3597   1.097   .     S
C3588  H3598   1.135   .     S
C3589  H3599   1.119   .     S
C3589  H3600   1.114   .     S
C3589  H3601   1.120   .     S
C3590  H3602   1.101   .     S
C3590  H3603   1.089   .     S
C3590  H3604   1.109   .     S
C3591  H3605   1.110   .     S
C3591  H3606   1.137   .     S
C3591  H3607   1.139   .     S
C3592  H3608   1.042   .     S
C3592  H3609   1.098   .     S
C3592  H3610   1.053   .     S
C3593  H3611   1.111   .     S
C3593  H3612   1.090   .     S
C3593  H3613   1.101   .     S
C3594  H3614   1.064   .     S
C3594  H3615   1.114   .     S
C3594  H3616   1.090   .     S
C3595  H3617   1.158   .     S
C3595  H3618   1.119   .     S
C3595  H3619   1.097   .     S
Si3620 O3626   1.675   .     S
Si3620 O3627   1.676   .     S
Si3620 C3628   1.841   .     S
Si3620 C3629   1.793   .     S
Si3621 O3624   1.676   .     S
Si3621 O3625   1.676   .     S
Si3621 C3630   1.849   .     S
Si3621 C3631   1.822   .     S
Si3622 O3625   1.676   .     S
Si3622 O3626   1.676   .     S
Si3622 C3632   1.782   .     S
Si3622 C3633   1.799   .     S
Si3623 O3624   1.676   .     S
Si3623 O3627   1.676   .     S
Si3623 C3634   1.805   .     S
Si3623 C3635   1.789   .     S
C3628  H3636   1.122   .     S
C3628  H3637   1.144   .     S
C3628  H3638   1.102   .     S
C3629  H3639   1.122   .     S
C3629  H3640   1.109   .     S
C3629  H3641   1.062   .     S
C3630  H3642   1.101   .     S
C3630  H3643   1.103   .     S
C3630  H3644   1.041   .     S
C3631  H3645   1.140   .     S
C3631  H3646   1.082   .     S
C3631  H3647   1.129   .     S
C3632  H3648   1.126   .     S
C3632  H3649   1.118   .     S
C3632  H3650   1.091   .     S
C3633  H3651   1.114   .     S
C3633  H3652   1.065   .     S
C3633  H3653   1.182   .     S
C3634  H3654   1.088   .     S
C3634  H3655   1.158   .     S
C3634  H3656   1.125   .     S
C3635  H3657   1.121   .     S
C3635  H3658   1.108   .     S
C3635  H3659   1.087   .     S
Si3660 O3666   1.677   .     S
Si3660 O3667   1.675   .     S
Si3660 C3668   1.827   .     S
Si3660 C3669   1.792   .     S
Si3661 O3664   1.676   .     S
Si3661 O3665   1.675   .     S
Si3661 C3670   1.790   .     S
Si3661 C3671   1.811   .     S
Si3662 O3665   1.676   .     S
Si3662 O3666   1.676   .     S
Si3662 C3672   1.764   .     S
Si3662 C3673   1.854   .     S
Si3663 O3664   1.675   .     S
Si3663 O3667   1.676   .     S
Si3663 C3674   1.843   .     S
Si3663 C3675   1.772   .     S
C3668  H3676   1.111   .     S
C3668  H3677   1.090   .     S
C3668  H3678   1.078   .     S
C3669  H3679   1.131   .     S
C3669  H3680   1.136   .     S
C3669  H3681   1.120   .     S
C3670  H3682   1.049   .     S
C3670  H3683   1.102   .     S
C3670  H3684   1.081   .     S
C3671  H3685   1.101   .     S
C3671  H3686   1.101   .     S
C3671  H3687   1.128   .     S
C3672  H3688   1.117   .     S
C3672  H3689   1.103   .     S
C3672  H3690   1.170   .     S
C3673  H3691   1.085   .     S
C3673  H3692   1.107   .     S
C3673  H3693   1.155   .     S
C3674  H3694   1.070   .     S
C3674  H3695   1.054   .     S
C3674  H3696   1.121   .     S
C3675  H3697   1.086   .     S
C3675  H3698   1.105   .     S
C3675  H3699   1.117   .     S
Si3700 O3706   1.676   .     S
Si3700 O3707   1.675   .     S
Si3700 C3708   1.808   .     S
Si3700 C3709   1.788   .     S
Si3701 O3704   1.675   .     S
Si3701 O3705   1.675   .     S
Si3701 C3710   1.821   .     S
Si3701 C3711   1.798   .     S
Si3702 O3705   1.677   .     S
Si3702 O3706   1.676   .     S
Si3702 C3712   1.835   .     S
Si3702 C3713   1.785   .     S
Si3703 O3704   1.677   .     S
Si3703 O3707   1.676   .     S
Si3703 C3714   1.760   .     S
Si3703 C3715   1.788   .     S
C3708  H3716   1.136   .     S
C3708  H3717   1.097   .     S
C3708  H3718   1.108   .     S
C3709  H3719   1.127   .     S
C3709  H3720   1.096   .     S
C3709  H3721   1.085   .     S
C3710  H3722   1.107   .     S
C3710  H3723   1.096   .     S
C3710  H3724   1.059   .     S
C3711  H3725   1.112   .     S
C3711  H3726   1.056   .     S
C3711  H3727   1.112   .     S
C3712  H3728   1.108   .     S
C3712  H3729   1.099   .     S
C3712  H3730   1.180   .     S
C3713  H3731   1.112   .     S
C3713  H3732   1.061   .     S
C3713  H3733   1.098   .     S
C3714  H3734   1.095   .     S
C3714  H3735   1.103   .     S
C3714  H3736   1.138   .     S
C3715  H3737   1.103   .     S
C3715  H3738   1.110   .     S
C3715  H3739   1.110   .     S
Si3740 O3746   1.676   .     S
Si3740 O3747   1.677   .     S
Si3740 C3748   1.807   .     S
Si3740 C3749   1.899   .     S
Si3741 O3744   1.676   .     S
Si3741 O3745   1.676   .     S
Si3741 C3750   1.768   .     S
Si3741 C3751   1.809   .     S
Si3742 O3745   1.677   .     S
Si3742 O3746   1.676   .     S
Si3742 C3752   1.776   .     S
Si3742 C3753   1.789   .     S
Si3743 O3744   1.675   .     S
Si3743 O3747   1.676   .     S
Si3743 C3754   1.765   .     S
Si3743 C3755   1.808   .     S
C3748  H3756   1.127   .     S
C3748  H3757   1.067   .     S
C3748  H3758   1.146   .     S
C3749  H3759   1.171   .     S
C3749  H3760   1.106   .     S
C3749  H3761   1.091   .     S
C3750  H3762   1.052   .     S
C3750  H3763   1.112   .     S
C3750  H3764   1.100   .     S
C3751  H3765   1.132   .     S
C3751  H3766   1.094   .     S
C3751  H3767   1.090   .     S
C3752  H3768   1.065   .     S
C3752  H3769   1.134   .     S
C3752  H3770   1.095   .     S
C3753  H3771   1.057   .     S
C3753  H3772   1.100   .     S
C3753  H3773   1.095   .     S
C3754  H3774   1.088   .     S
C3754  H3775   1.121   .     S
C3754  H3776   1.111   .     S
C3755  H3777   1.097   .     S
C3755  H3778   1.084   .     S
C3755  H3779   1.066   .     S
Si3780 O3786   1.677   .     S
Si3780 O3787   1.675   .     S
Si3780 C3788   1.815   .     S
Si3780 C3789   1.816   .     S
Si3781 O3784   1.676   .     S
Si3781 O3785   1.676   .     S
Si3781 C3790   1.817   .     S
Si3781 C3791   1.784   .     S
Si3782 O3785   1.676   .     S
Si3782 O3786   1.675   .     S
Si3782 C3792   1.821   .     S
Si3782 C3793   1.844   .     S
Si3783 O3784   1.675   .     S
Si3783 O3787   1.676   .     S
Si3783 C3794   1.828   .     S
Si3783 C3795   1.825   .     S
C3788  H3796   1.150   .     S
C3788  H3797   1.072   .     S
C3788  H3798   1.099   .     S
C3789  H3799   1.095   .     S
C3789  H3800   1.085   .     S
C3789  H3801   1.147   .     S
C3790  H3802   1.109   .     S
C3790  H3803   1.049   .     S
C3790  H3804   1.112   .     S
C3791  H3805   1.093   .     S
C3791  H3806   1.092   .     S
C3791  H3807   1.108   .     S
C3792  H3808   1.090   .     S
C3792  H3809   1.097   .     S
C3792  H3810   1.141   .     S
C3793  H3811   1.102   .     S
C3793  H3812   1.117   .     S
C3793  H3813   1.088   .     S
C3794  H3814   1.144   .     S
C3794  H3815   1.101   .     S
C3794  H3816   1.136   .     S
C3795  H3817   1.138   .     S
C3795  H3818   1.092   .     S
C3795  H3819   1.144   .     S
Si3820 O3826   1.677   .     S
Si3820 O3827   1.676   .     S
Si3820 C3828   1.806   .     S
Si3820 C3829   1.805   .     S
Si3821 O3824   1.675   .     S
Si3821 O3825   1.676   .     S
Si3821 C3830   1.842   .     S
Si3821 C3831   1.789   .     S
Si3822 O3825   1.676   .     S
Si3822 O3826   1.676   .     S
Si3822 C3832   1.790   .     S
Si3822 C3833   1.878   .     S
Si3823 O3824   1.676   .     S
Si3823 O3827   1.675   .     S
Si3823 C3834   1.828   .     S
Si3823 C3835   1.806   .     S
C3828  H3836   1.077   .     S
C3828  H3837   1.126   .     S
C3828  H3838   1.129   .     S
C3829  H3839   1.065   .     S
C3829  H3840   1.098   .     S
C3829  H3841   1.133   .     S
C3830  H3842   1.136   .     S
C3830  H3843   1.103   .     S
C3830  H3844   1.117   .     S
C3831  H3845   1.105   .     S
C3831  H3846   1.085   .     S
C3831  H3847   1.100   .     S
C3832  H3848   1.076   .     S
C3832  H3849   1.087   .     S
C3832  H3850   1.138   .     S
C3833  H3851   1.116   .     S
C3833  H3852   1.136   .     S
C3833  H3853   1.106   .     S
C3834  H3854   1.128   .     S
C3834  H3855   1.073   .     S
C3834  H3856   1.129   .     S
C3835  H3857   1.076   .     S
C3835  H3858   1.083   .     S
C3835  H3859   1.181   .     S
Si3860 O3866   1.676   .     S
Si3860 O3867   1.676   .     S
Si3860 C3868   1.897   .     S
Si3860 C3869   1.784   .     S
Si3861 O3864   1.675   .     S
Si3861 O3865   1.676   .     S
Si3861 C3870   1.793   .     S
Si3861 C3871   1.837   .     S
Si3862 O3865   1.677   .     S
Si3862 O3866   1.675   .     S
Si3862 C3872   1.788   .     S
Si3862 C3873   1.817   .     S
Si3863 O3864   1.676   .     S
Si3863 O3867   1.676   .     S
Si3863 C3874   1.777   .     S
Si3863 C3875   1.852   .     S
C3868  H3876   1.128   .     S
C3868  H3877   1.122   .     S
C3868  H3878   1.105   .     S
C3869  H3879   1.083   .     S
C3869  H3880   1.103   .     S
C3869  H3881   1.067   .     S
C3870  H3882   1.105   .     S
C3870  H3883   1.097   .     S
C3870  H3884   1.135   .     S
C3871  H3885   1.179   .     S
C3871  H3886   1.121   .     S
C3871  H3887   1.066   .     S
C3872  H3888   1.149   .     S
C3872  H3889   1.133   .     S
C3872  H3890   1.075   .     S
C3873  H3891   1.113   .     S
C3873  H3892   1.127   .     S
C3873  H3893   1.150   .     S
C3874  H3894   1.036   .     S
C3874  H3895   1.147   .     S
C3874  H3896   1.064   .     S
C3875  H3897   1.151   .     S
C3875  H3898   1.104   .     S
C3875  H3899   1.092   .     S
Si3900 O3906   1.676   .     S
Si3900 O3907   1.676   .     S
Si3900 C3908   1.817   .     S
Si3900 C3909   1.753   .     S
Si3901 O3904   1.676   .     S
Si3901 O3905   1.676   .     S
Si3901 C3910   1.777   .     S
Si3901 C3911   1.800   .     S
Si3902 O3905   1.677   .     S
Si3902 O3906   1.675   .     S
Si3902 C3912   1.818   .     S
Si3902 C3913   1.785   .     S
Si3903 O3904   1.676   .     S
Si3903 O3907   1.676   .     S
Si3903 C3914   1.791   .     S
Si3903 C3915   1.839   .     S
C3908  H3916   1.091   .     S
C3908  H3917   1.117   .     S
C3908  H3918   1.075   .     S
C3909  H3919   1.151   .     S
C3909  H3920   1.085   .     S
C3909  H3921   1.142   .     S
C3910  H3922   1.116   .     S
C3910  H3923   1.100   .     S
C3910  H3924   1.116   .     S
C3911  H3925   1.058   .     S
C3911  H3926   1.103   .     S
C3911  H3927   1.090   .     S
C3912  H3928   1.104   .     S
C3912  H3929   1.082   .     S
C3912  H3930   1.130   .     S
C3913  H3931   1.109   .     S
C3913  H3932   1.161   .     S
C3913  H3933   1.096   .     S
C3914  H3934   1.112   .     S
C3914  H3935   1.126   .     S
C3914  H3936   1.123   .     S
C3915  H3937   1.155   .     S
C3915  H3938   1.123   .     S
C3915  H3939   1.085   .     S
Si3940 O3946   1.676   .     S
Si3940 O3947   1.675   .     S
Si3940 C3948   1.836   .     S
Si3940 C3949   1.760   .     S
Si3941 O3944   1.675   .     S
Si3941 O3945   1.676   .     S
Si3941 C3950   1.785   .     S
Si3941 C3951   1.804   .     S
Si3942 O3945   1.676   .     S
Si3942 O3946   1.676   .     S
Si3942 C3952   1.797   .     S
Si3942 C3953   1.789   .     S
Si3943 O3944   1.676   .     S
Si3943 O3947   1.676   .     S
Si3943 C3954   1.813   .     S
Si3943 C3955   1.904   .     S
C3948  H3956   1.127   .     S
C3948  H3957   1.052   .     S
C3948  H3958   1.129   .     S
C3949  H3959   1.097   .     S
C3949  H3960   1.095   .     S
C3949  H3961   1.102   .     S
C3950  H3962   1.116   .     S
C3950  H3963   1.075   .     S
C3950  H3964   1.105   .     S
C3951  H3965   1.093   .     S
C3951  H3966   1.112   .     S
C3951  H3967   1.065   .     S
C3952  H3968   1.122   .     S
C3952  H3969   1.118   .     S
C3952  H3970   1.104   .     S
C3953  H3971   1.058   .     S
C3953  H3972   1.128   .     S
C3953  H3973   1.115   .     S
C3954  H3974   1.120   .     S
C3954  H3975   1.072   .     S
C3954  H3976   1.080   .     S
C3955  H3977   1.119   .     S
C3955  H3978   1.107   .     S
C3955  H3979   1.096   .     S
Si3980 O3986   1.676   .     S
Si3980 O3987   1.676   .     S
Si3980 C3988   1.799   .     S
Si3980 C3989   1.759   .     S
Si3981 O3984   1.677   .     S
Si3981 O3985   1.676   .     S
Si3981 C3990   1.809   .     S
Si3981 C3991   1.783   .     S
Si3982 O3985   1.676   .     S
Si3982 O3986   1.676   .     S
Si3982 C3992   1.806   .     S
Si3982 C3993   1.833   .     S
Si3983 O3984   1.675   .     S
Si3983 O3987   1.676   .     S
Si3983 C3994   1.854   .     S
Si3983 C3995   1.828   .     S
C3988  H3996   1.137   .     S
C3988  H3997   1.115   .     S
C3988  H3998   1.107   .     S
C3989  H3999   1.089   .     S
C3989  H4000   1.122   .     S
C3989  H4001   1.077   .     S
C3990  H4002   1.108   .     S
C3990  H4003   1.068   .     S
C3990  H4004   1.096   .     S
C3991  H4005   1.101   .     S
C3991  H4006   1.127   .     S
C3991  H4007   1.112   .     S
C3992  H4008   1.137   .     S
C3992  H4009   1.129   .     S
C3992  H4010   1.071   .     S
C3993  H4011   1.161   .     S
C3993  H4012   1.111   .     S
C3993  H4013   1.131   .     S
C3994  H4014   1.152   .     S
C3994  H4015   1.078   .     S
C3994  H4016   1.136   .     S
C3995  H4017   1.129   .     S
C3995  H4018   1.084   .     S
C3995  H4019   1.082   .     S
Si4020 O4026   1.677   .     S
Si4020 O4027   1.676   .     S
Si4020 C4028   1.817   .     S
Si4020 C4029   1.790   .     S
Si4021 O4024   1.676   .     S
Si4021 O4025   1.675   .     S
Si4021 C4030   1.826   .     S
Si4021 C4031   1.822   .     S
Si4022 O4025   1.676   .     S
Si4022 O4026   1.676   .     S
Si4022 C4032   1.732   .     S
Si4022 C4033   1.815   .     S
Si4023 O4024   1.676   .     S
Si4023 O4027   1.675   .     S
Si4023 C4034   1.795   .     S
Si4023 C4035   1.811   .     S
C4028  H4036   1.100   .     S
C4028  H4037   1.094   .     S
C4028  H4038   1.142   .     S
C4029  H4039   1.080   .     S
C4029  H4040   1.059   .     S
C4029  H4041   1.105   .     S
C4030  H4042   1.105   .     S
C4030  H4043   1.116   .     S
C4030  H4044   1.102   .     S
C4031  H4045   1.078   .     S
C4031  H4046   1.102   .     S
C4031  H4047   1.059   .     S
C4032  H4048   1.100   .     S
C4032  H4049   1.135   .     S
C4032  H4050   1.099   .     S
C4033  H4051   1.122   .     S
C4033  H4052   1.192   .     S
C4033  H4053   1.099   .     S
C4034  H4054   1.134   .     S
C4034  H4055   1.099   .     S
C4034  H4056   1.086   .     S
C4035  H4057   1.116   .     S
C4035  H4058   1.168   .     S
C4035  H4059   1.095   .     S
Si4060 O4066   1.675   .     S
Si4060 O4067   1.676   .     S
Si4060 C4068   1.798   .     S
Si4060 C4069   1.837   .     S
Si4061 O4064   1.676   .     S
Si4061 O4065   1.675   .     S
Si4061 C4070   1.785   .     S
Si4061 C4071   1.836   .     S
Si4062 O4065   1.676   .     S
Si4062 O4066   1.676   .     S
Si4062 C4072   1.809   .     S
Si4062 C4073   1.815   .     S
Si4063 O4064   1.677   .     S
Si4063 O4067   1.676   .     S
Si4063 C4074   1.835   .     S
Si4063 C4075   1.844   .     S
C4068  H4076   1.049   .     S
C4068  H4077   1.097   .     S
C4068  H4078   1.120   .     S
C4069  H4079   1.079   .     S
C4069  H4080   1.115   .     S
C4069  H4081   1.126   .     S
C4070  H4082   1.127   .     S
C4070  H4083   1.101   .     S
C4070  H4084   1.111   .     S
C4071  H4085   1.063   .     S
C4071  H4086   1.141   .     S
C4071  H4087   1.115   .     S
C4072  H4088   1.050   .     S
C4072  H4089   1.075   .     S
C4072  H4090   1.126   .     S
C4073  H4091   1.113   .     S
C4073  H4092   1.117   .     S
C4073  H4093   1.150   .     S
C4074  H4094   1.090   .     S
C4074  H4095   1.115   .     S
C4074  H4096   1.123   .     S
C4075  H4097   1.109   .     S
C4075  H4098   1.108   .     S
C4075  H4099   1.124   .     S
Si4100 O4106   1.676   .     S
Si4100 O4107   1.676   .     S
Si4100 C4108   1.791   .     S
Si4100 C4109   1.804   .     S
Si4101 O4104   1.676   .     S
Si4101 O4105   1.675   .     S
Si4101 C4110   1.853   .     S
Si4101 C4111   1.775   .     S
Si4102 O4105   1.675   .     S
Si4102 O4106   1.677   .     S
Si4102 C4112   1.852   .     S
Si4102 C4113   1.749   .     S
Si4103 O4104   1.676   .     S
Si4103 O4107   1.676   .     S
Si4103 C4114   1.824   .     S
Si4103 C4115   1.873   .     S
C4108  H4116   1.114   .     S
C4108  H4117   1.136   .     S
C4108  H4118   1.166   .     S
C4109  H4119   1.105   .     S
C4109  H4120   1.096   .     S
C4109  H4121   1.083   .     S
C4110  H4122   1.114   .     S
C4110  H4123   1.129   .     S
C4110  H4124   1.092   .     S
C4111  H4125   1.109   .     S
C4111  H4126   1.105   .     S
C4111  H4127   1.056   .     S
C4112  H4128   1.132   .     S
C4112  H4129   1.104   .     S
C4112  H4130   1.146   .     S
C4113  H4131   1.123   .     S
C4113  H4132   1.110   .     S
C4113  H4133   1.085   .     S
C4114  H4134   1.064   .     S
C4114  H4135   1.091   .     S
C4114  H4136   1.103   .     S
C4115  H4137   1.150   .     S
C4115  H4138   1.093   .     S
C4115  H4139   1.123   .     S
Si4140 O4146   1.676   .     S
Si4140 O4147   1.676   .     S
Si4140 C4148   1.737   .     S
Si4140 C4149   1.766   .     S
Si4141 O4144   1.676   .     S
Si4141 O4145   1.675   .     S
Si4141 C4150   1.797   .     S
Si4141 C4151   1.868   .     S
Si4142 O4145   1.676   .     S
Si4142 O4146   1.676   .     S
Si4142 C4152   1.796   .     S
Si4142 C4153   1.790   .     S
Si4143 O4144   1.676   .     S
Si4143 O4147   1.676   .     S
Si4143 C4154   1.835   .     S
Si4143 C4155   1.781   .     S
C4148  H4156   1.083   .     S
C4148  H4157   1.129   .     S
C4148  H4158   1.095   .     S
C4149  H4159   1.117   .     S
C4149  H4160   1.096   .     S
C4149  H4161   1.150   .     S
C4150  H4162   1.119   .     S
C4150  H4163   1.115   .     S
C4150  H4164   1.043   .     S
C4151  H4165   1.107   .     S
C4151  H4166   1.094   .     S
C4151  H4167   1.138   .     S
C4152  H4168   1.091   .     S
C4152  H4169   1.147   .     S
C4152  H4170   1.148   .     S
C4153  H4171   1.096   .     S
C4153  H4172   1.128   .     S
C4153  H4173   1.106   .     S
C4154  H4174   1.123   .     S
C4154  H4175   1.078   .     S
C4154  H4176   1.087   .     S
C4155  H4177   1.143   .     S
C4155  H4178   1.117   .     S
C4155  H4179   1.111   .     S
Si4180 O4186   1.676   .     S
Si4180 O4187   1.676   .     S
Si4180 C4188   1.804   .     S
Si4180 C4189   1.840   .     S
Si4181 O4184   1.676   .     S
Si4181 O4185   1.676   .     S
Si4181 C4190   1.818   .     S
Si4181 C4191   1.839   .     S
Si4182 O4185   1.675   .     S
Si4182 O4186   1.676   .     S
Si4182 C4192   1.780   .     S
Si4182 C4193   1.806   .     S
Si4183 O4184   1.676   .     S
Si4183 O4187   1.675   .     S
Si4183 C4194   1.805   .     S
Si4183 C4195   1.801   .     S
C4188  H4196   1.096   .     S
C4188  H4197   1.098   .     S
C4188  H4198   1.084   .     S
C4189  H4199   1.113   .     S
C4189  H4200   1.148   .     S
C4189  H4201   1.093   .     S
C4190  H4202   1.105   .     S
C4190  H4203   1.108   .     S
C4190  H4204   1.092   .     S
C4191  H4205   1.074   .     S
C4191  H4206   1.151   .     S
C4191  H4207   1.125   .     S
C4192  H4208   1.121   .     S
C4192  H4209   1.125   .     S
C4192  H4210   1.091   .     S
C4193  H4211   1.099   .     S
C4193  H4212   1.100   .     S
C4193  H4213   1.119   .     S
C4194  H4214   1.092   .     S
C4194  H4215   1.078   .     S
C4194  H4216   1.085   .     S
C4195  H4217   1.127   .     S
C4195  H4218   1.126   .     S
C4195  H4219   1.104   .     S
Si4220 O4226   1.676   .     S
Si4220 O4227   1.676   .     S
Si4220 C4228   1.788   .     S
Si4220 C4229   1.795   .     S
Si4221 O4224   1.676   .     S
Si4221 O4225   1.676   .     S
Si4221 C4230   1.823   .     S
Si4221 C4231   1.826   .     S
Si4222 O4225   1.676   .     S
Si4222 O4226   1.676   .     S
Si4222 C4232   1.810   .     S
Si4222 C4233   1.796   .     S
Si4223 O4224   1.676   .     S
Si4223 O4227   1.675   .     S
Si4223 C4234   1.792   .     S
Si4223 C4235   1.859   .     S
C4228  H4236   1.072   .     S
C4228  H4237   1.065   .     S
C4228  H4238   1.099   .     S
C4229  H4239   1.080   .     S
C4229  H4240   1.071   .     S
C4229  H4241   1.079   .     S
C4230  H4242   1.122   .     S
C4230  H4243   1.091   .     S
C4230  H4244   1.143   .     S
C4231  H4245   1.137   .     S
C4231  H4246   1.125   .     S
C4231  H4247   1.105   .     S
C4232  H4248   1.086   .     S
C4232  H4249   1.096   .     S
C4232  H4250   1.114   .     S
C4233  H4251   1.090   .     S
C4233  H4252   1.087   .     S
C4233  H4253   1.094   .     S
C4234  H4254   1.077   .     S
C4234  H4255   1.128   .     S
C4234  H4256   1.108   .     S
C4235  H4257   1.079   .     S
C4235  H4258   1.114   .     S
C4235  H4259   1.113   .     S
Si4260 O4266   1.675   .     S
Si4260 O4267   1.676   .     S
Si4260 C4268   1.791   .     S
Si4260 C4269   1.819   .     S
Si4261 O4264   1.676   .     S
Si4261 O4265   1.676   .     S
Si4261 C4270   1.813   .     S
Si4261 C4271   1.847   .     S
Si4262 O4265   1.676   .     S
Si4262 O4266   1.676   .     S
Si4262 C4272   1.782   .     S
Si4262 C4273   1.796   .     S
Si4263 O4264   1.676   .     S
Si4263 O4267   1.676   .     S
Si4263 C4274   1.782   .     S
Si4263 C4275   1.807   .     S
C4268  H4276   1.135   .     S
C4268  H4277   1.108   .     S
C4268  H4278   1.094   .     S
C4269  H4279   1.084   .     S
C4269  H4280   1.076   .     S
C4269  H4281   1.056   .     S
C4270  H4282   1.110   .     S
C4270  H4283   1.146   .     S
C4270  H4284   1.105   .     S
C4271  H4285   1.075   .     S
C4271  H4286   1.147   .     S
C4271  H4287   1.152   .     S
C4272  H4288   1.075   .     S
C4272  H4289   1.073   .     S
C4272  H4290   1.106   .     S
C4273  H4291   1.121   .     S
C4273  H4292   1.121   .     S
C4273  H4293   1.151   .     S
C4274  H4294   1.087   .     S
C4274  H4295   1.066   .     S
C4274  H4296   1.114   .     S
C4275  H4297   1.127   .     S
C4275  H4298   1.097   .     S
C4275  H4299   1.092   .     S
Si4300 O4306   1.676   .     S
Si4300 O4307   1.676   .     S
Si4300 C4308   1.763   .     S
Si4300 C4309   1.829   .     S
Si4301 O4304   1.676   .     S
Si4301 O4305   1.676   .     S
Si4301 C4310   1.819   .     S
Si4301 C4311   1.853   .     S
Si4302 O4305   1.677   .     S
Si4302 O4306   1.676   .     S
Si4302 C4312   1.842   .     S
Si4302 C4313   1.800   .     S
Si4303 O4304   1.675   .     S
Si4303 O4307   1.675   .     S
Si4303 C4314   1.867   .     S
Si4303 C4315   1.872   .     S
C4308  H4316   1.104   .     S
C4308  H4317   1.114   .     S
C4308  H4318   1.062   .     S
C4309  H4319   1.085   .     S
C4309  H4320   1.101   .     S
C4309  H4321   1.104   .     S
C4310  H4322   1.105   .     S
C4310  H4323   1.098   .     S
C4310  H4324   1.059   .     S
C4311  H4325   1.130   .     S
C4311  H4326   1.107   .     S
C4311  H4327   1.098   .     S
C4312  H4328   1.087   .     S
C4312  H4329   1.142   .     S
C4312  H4330   1.086   .     S
C4313  H4331   1.114   .     S
C4313  H4332   1.132   .     S
C4313  H4333   1.068   .     S
C4314  H4334   1.129   .     S
C4314  H4335   1.137   .     S
C4314  H4336   1.102   .     S
C4315  H4337   1.095   .     S
C4315  H4338   1.091   .     S
C4315  H4339   1.111   .     S
Si4340 O4346   1.675   .     S
Si4340 O4347   1.676   .     S
Si4340 C4348   1.799   .     S
Si4340 C4349   1.789   .     S
Si4341 O4344   1.675   .     S
Si4341 O4345   1.676   .     S
Si4341 C4350   1.789   .     S
Si4341 C4351   1.823   .     S
Si4342 O4345   1.676   .     S
Si4342 O4346   1.676   .     S
Si4342 C4352   1.821   .     S
Si4342 C4353   1.849   .     S
Si4343 O4344   1.676   .     S
Si4343 O4347   1.676   .     S
Si4343 C4354   1.791   .     S
Si4343 C4355   1.823   .     S
C4348  H4356   1.095   .     S
C4348  H4357   1.073   .     S
C4348  H4358   1.104   .     S
C4349  H4359   1.170   .     S
C4349  H4360   1.100   .     S
C4349  H4361   1.079   .     S
C4350  H4362   1.111   .     S
C4350  H4363   1.079   .     S
C4350  H4364   1.080   .     S
C4351  H4365   1.105   .     S
C4351  H4366   1.132   .     S
C4351  H4367   1.084   .     S
C4352  H4368   1.129   .     S
C4352  H4369   1.117   .     S
C4352  H4370   1.088   .     S
C4353  H4371   1.081   .     S
C4353  H4372   1.159   .     S
C4353  H4373   1.085   .     S
C4354  H4374   1.098   .     S
C4354  H4375   1.137   .     S
C4354  H4376   1.085   .     S
C4355  H4377   1.127   .     S
C4355  H4378   1.105   .     S
C4355  H4379   1.100   .     S
Si4380 O4386   1.676   .     S
Si4380 O4387   1.676   .     S
Si4380 C4388   1.809   .     S
Si4380 C4389   1.789   .     S
Si4381 O4384   1.676   .     S
Si4381 O4385   1.676   .     S
Si4381 C4390   1.865   .     S
Si4381 C4391   1.808   .     S
Si4382 O4385   1.676   .     S
Si4382 O4386   1.676   .     S
Si4382 C4392   1.776   .     S
Si4382 C4393   1.787   .     S
Si4383 O4384   1.676   .     S
Si4383 O4387   1.677   .     S
Si4383 C4394   1.855   .     S
Si4383 C4395   1.724   .     S
C4388  H4396   1.110   .     S
C4388  H4397   1.110   .     S
C4388  H4398   1.149   .     S
C4389  H4399   1.089   .     S
C4389  H4400   1.118   .     S
C4389  H4401   1.082   .     S
C4390  H4402   1.121   .     S
C4390  H4403   1.098   .     S
C4390  H4404   1.149   .     S
C4391  H4405   1.130   .     S
C4391  H4406   1.102   .     S
C4391  H4407   1.086   .     S
C4392  H4408   1.074   .     S
C4392  H4409   1.095   .     S
C4392  H4410   1.136   .     S
C4393  H4411   1.121   .     S
C4393  H4412   1.142   .     S
C4393  H4413   1.125   .     S
C4394  H4414   1.060   .     S
C4394  H4415   1.116   .     S
C4394  H4416   1.126   .     S
C4395  H4417   1.142   .     S
C4395  H4418   1.123   .     S
C4395  H4419   1.039   .     S
Si4420 O4426   1.677   .     S
Si4420 O4427   1.675   .     S
Si4420 C4428   1.773   .     S
Si4420 C4429   1.808   .     S
Si4421 O4424   1.675   .     S
Si4421 O4425   1.676   .     S
Si4421 C4430   1.776   .     S
Si4421 C4431   1.747   .     S
Si4422 O4425   1.676   .     S
Si4422 O4426   1.675   .     S
Si4422 C4432   1.814   .     S
Si4422 C4433   1.778   .     S
Si4423 O4424   1.676   .     S
Si4423 O4427   1.676   .     S
Si4423 C4434   1.836   .     S
Si4423 C4435   1.778   .     S
C4428  H4436   1.156   .     S
C4428  H4437   1.089   .     S
C4428  H4438   1.064   .     S
C4429  H4439   1.113   .     S
C4429  H4440   1.092   .     S
C4429  H4441   1.110   .     S
C4430  H4442   1.102   .     S
C4430  H4443   1.112   .     S
C4430  H4444   1.117   .     S
C4431  H4445   1.075   .     S
C4431  H4446   1.137   .     S
C4431  H4447   1.085   .     S
C4432  H4448   1.105   .     S
C4432  H4449   1.155   .     S
C4432  H4450   1.133   .     S
C4433  H4451   1.090   .     S
C4433  H4452   1.119   .     S
C4433  H4453   1.128   .     S
C4434  H4454   1.122   .     S
C4434  H4455   1.128   .     S
C4434  H4456   1.084   .     S
C4435  H4457   1.105   .     S
C4435  H4458   1.084   .     S
C4435  H4459   1.082   .     S
Si4460 O4466   1.676   .     S
Si4460 O4467   1.675   .     S
Si4460 C4468   1.821   .     S
Si4460 C4469   1.892   .     S
Si4461 O4464   1.676   .     S
Si4461 O4465   1.676   .     S
Si4461 C4470   1.774   .     S
Si4461 C4471   1.838   .     S
Si4462 O4465   1.676   .     S
Si4462 O4466   1.676   .     S
Si4462 C4472   1.789   .     S
Si4462 C4473   1.792   .     S
Si4463 O4464   1.676   .     S
Si4463 O4467   1.675   .     S
Si4463 C4474   1.828   .     S
Si4463 C4475   1.721   .     S
C4468  H4476   1.063   .     S
C4468  H4477   1.057   .     S
C4468  H4478   1.093   .     S
C4469  H4479   1.121   .     S
C4469  H4480   1.081   .     S
C4469  H4481   1.156   .     S
C4470  H4482   1.112   .     S
C4470  H4483   1.153   .     S
C4470  H4484   1.098   .     S
C4471  H4485   1.144   .     S
C4471  H4486   1.109   .     S
C4471  H4487   1.076   .     S
C4472  H4488   1.063   .     S
C4472  H4489   1.088   .     S
C4472  H4490   1.080   .     S
C4473  H4491   1.144   .     S
C4473  H4492   1.080   .     S
C4473  H4493   1.118   .     S
C4474  H4494   1.068   .     S
C4474  H4495   1.113   .     S
C4474  H4496   1.089   .     S
C4475  H4497   1.078   .     S
C4475  H4498   1.131   .     S
C4475  H4499   1.108   .     S
Si4500 O4506   1.676   .     S
Si4500 O4507   1.676   .     S
Si4500 C4508   1.846   .     S
Si4500 C4509   1.876   .     S
Si4501 O4504   1.675   .     S
Si4501 O4505   1.676   .     S
Si4501 C4510   1.809   .     S
Si4501 C4511   1.808   .     S
Si4502 O4505   1.676   .     S
Si4502 O4506   1.676   .     S
Si4502 C4512   1.803   .     S
Si4502 C4513   1.812   .     S
Si4503 O4504   1.676   .     S
Si4503 O4507   1.676   .     S
Si4503 C4514   1.800   .     S
Si4503 C4515   1.854   .     S
C4508  H4516   1.089   .     S
C4508  H4517   1.094   .     S
C4508  H4518   1.103   .     S
C4509  H4519   1.108   .     S
C4509  H4520   1.035   .     S
C4509  H4521   1.104   .     S
C4510  H4522   1.105   .     S
C4510  H4523   1.130   .     S
C4510  H4524   1.075   .     S
C4511  H4525   1.110   .     S
C4511  H4526   1.121   .     S
C4511  H4527   1.128   .     S
C4512  H4528   1.064   .     S
C4512  H4529   1.136   .     S
C4512  H4530   1.095   .     S
C4513  H4531   1.116   .     S
C4513  H4532   1.122   .     S
C4513  H4533   1.138   .     S
C4514  H4534   1.096   .     S
C4514  H4535   1.096   .     S
C4514  H4536   1.094   .     S
C4515  H4537   1.130   .     S
C4515  H4538   1.081   .     S
C4515  H4539   1.108   .     S
Si4540 O4546   1.675   .     S
Si4540 O4547   1.676   .     S
Si4540 C4548   1.732   .     S
Si4540 C4549   1.802   .     S
Si4541 O4544   1.676   .     S
Si4541 O4545   1.676   .     S
Si4541 C4550   1.842   .     S
Si4541 C4551   1.829   .     S
Si4542 O4545   1.676   .     S
Si4542 O4546   1.676   .     S
Si4542 C4552   1.836   .     S
Si4542 C4553   1.888   .     S
Si4543 O4544   1.675   .     S
Si4543 O4547   1.676   .     S
Si4543 C4554   1.781   .     S
Si4543 C4555   1.857   .     S
C4548  H4556   1.070   .     S
C4548  H4557   1.034   .     S
C4548  H4558   1.094   .     S
C4549  H4559   1.134   .     S
C4549  H4560   1.047   .     S
C4549  H4561   1.099   .     S
C4550  H4562   1.114   .     S
C4550  H4563   1.084   .     S
C4550  H4564   1.134   .     S
C4551  H4565   1.122   .     S
C4551  H4566   1.112   .     S
C4551  H4567   1.078   .     S
C4552  H4568   1.082   .     S
C4552  H4569   1.113   .     S
C4552  H4570   1.135   .     S
C4553  H4571   1.065   .     S
C4553  H4572   1.101   .     S
C4553  H4573   1.089   .     S
C4554  H4574   1.106   .     S
C4554  H4575   1.111   .     S
C4554  H4576   1.079   .     S
C4555  H4577   1.082   .     S
C4555  H4578   1.105   .     S
C4555  H4579   1.086   .     S
Si4580 O4586   1.676   .     S
Si4580 O4587   1.676   .     S
Si4580 C4588   1.802   .     S
Si4580 C4589   1.839   .     S
Si4581 O4584   1.676   .     S
Si4581 O4585   1.676   .     S
Si4581 C4590   1.754   .     S
Si4581 C4591   1.835   .     S
Si4582 O4585   1.676   .     S
Si4582 O4586   1.676   .     S
Si4582 C4592   1.844   .     S
Si4582 C4593   1.865   .     S
Si4583 O4584   1.676   .     S
Si4583 O4587   1.676   .     S
Si4583 C4594   1.850   .     S
Si4583 C4595   1.765   .     S
C4588  H4596   1.131   .     S
C4588  H4597   1.112   .     S
C4588  H4598   1.139   .     S
C4589  H4599   1.084   .     S
C4589  H4600   1.110   .     S
C4589  H4601   1.130   .     S
C4590  H4602   1.119   .     S
C4590  H4603   1.101   .     S
C4590  H4604   1.111   .     S
C4591  H4605   1.138   .     S
C4591  H4606   1.077   .     S
C4591  H4607   1.094   .     S
C4592  H4608   1.146   .     S
C4592  H4609   1.114   .     S
C4592  H4610   1.092   .     S
C4593  H4611   1.128   .     S
C4593  H4612   1.061   .     S
C4593  H4613   1.088   .     S
C4594  H4614   1.065   .     S
C4594  H4615   1.110   .     S
C4594  H4616   1.069   .     S
C4595  H4617   1.112   .     S
C4595  H4618   1.145   .     S
C4595  H4619   1.098   .     S
Si4620 O4626   1.676   .     S
Si4620 O4627   1.675   .     S
Si4620 C4628   1.791   .     S
Si4620 C4629   1.806   .     S
Si4621 O4624   1.676   .     S
Si4621 O4625   1.676   .     S
Si4621 C4630   1.834   .     S
Si4621 C4631   1.806   .     S
Si4622 O4625   1.676   .     S
Si4622 O4626   1.675   .     S
Si4622 C4632   1.809   .     S
Si4622 C4633   1.786   .     S
Si4623 O4624   1.675   .     S
Si4623 O4627   1.677   .     S
Si4623 C4634   1.837   .     S
Si4623 C4635   1.795   .     S
C4628  H4636   1.106   .     S
C4628  H4637   1.124   .     S
C4628  H4638   1.117   .     S
C4629  H4639   1.092   .     S
C4629  H4640   1.086   .     S
C4629  H4641   1.160   .     S
C4630  H4642   1.104   .     S
C4630  H4643   1.120   .     S
C4630  H4644   1.094   .     S
C4631  H4645   1.145   .     S
C4631  H4646   1.123   .     S
C4631  H4647   1.115   .     S
C4632  H4648   1.113   .     S
C4632  H4649   1.106   .     S
C4632  H4650   1.078   .     S
C4633  H4651   1.131   .     S
C4633  H4652   1.110   .     S
C4633  H4653   1.071   .     S
C4634  H4654   1.119   .     S
C4634  H4655   1.084   .     S
C4634  H4656   1.115   .     S
C4635  H4657   1.105   .     S
C4635  H4658   1.100   .     S
C4635  H4659   1.066   .     S
Si4660 O4666   1.676   .     S
Si4660 O4667   1.676   .     S
Si4660 C4668   1.827   .     S
Si4660 C4669   1.803   .     S
Si4661 O4664   1.676   .     S
Si4661 O4665   1.676   .     S
Si4661 C4670   1.799   .     S
Si4661 C4671   1.825   .     S
Si4662 O4665   1.676   .     S
Si4662 O4666   1.675   .     S
Si4662 C4672   1.828   .     S
Si4662 C4673   1.822   .     S
Si4663 O4664   1.676   .     S
Si4663 O4667   1.676   .     S
Si4663 C4674   1.849   .     S
Si4663 C4675   1.801   .     S
C4668  H4676   1.063   .     S
C4668  H4677   1.113   .     S
C4668  H4678   1.076   .     S
C4669  H4679   1.108   .     S
C4669  H4680   1.101   .     S
C4669  H4681   1.134   .     S
C4670  H4682   1.114   .     S
C4670  H4683   1.117   .     S
C4670  H4684   1.106   .     S
C4671  H4685   1.086   .     S
C4671  H4686   1.140   .     S
C4671  H4687   1.132   .     S
C4672  H4688   1.042   .     S
C4672  H4689   1.113   .     S
C4672  H4690   1.121   .     S
C4673  H4691   1.043   .     S
C4673  H4692   1.164   .     S
C4673  H4693   1.082   .     S
C4674  H4694   1.110   .     S
C4674  H4695   1.076   .     S
C4674  H4696   1.069   .     S
C4675  H4697   1.085   .     S
C4675  H4698   1.154   .     S
C4675  H4699   1.135   .     S
Si4700 O4706   1.676   .     S
Si4700 O4707   1.676   .     S
Si4700 C4708   1.890   .     S
Si4700 C4709   1.817   .     S
Si4701 O4704   1.676   .     S
Si4701 O4705   1.676   .     S
Si4701 C4710   1.791   .     S
Si4701 C4711   1.822   .     S
Si4702 O4705   1.675   .     S
Si4702 O4706   1.676   .     S
Si4702 C4712   1.829   .     S
Si4702 C4713   1.792   .     S
Si4703 O4704   1.676   .     S
Si4703 O4707   1.676   .     S
Si4703 C4714   1.824   .     S
Si4703 C4715   1.787   .     S
C4708  H4716   1.104   .     S
C4708  H4717   1.125   .     S
C4708  H4718   1.123   .     S
C4709  H4719   1.081   .     S
C4709  H4720   1.093   .     S
C4709  H4721   1.117   .     S
C4710  H4722   1.088   .     S
C4710  H4723   1.120   .     S
C4710  H4724   1.137   .     S
C4711  H4725   1.082   .     S
C4711  H4726   1.003   .     S
C4711  H4727   1.111   .     S
C4712  H4728   1.052   .     S
C4712  H4729   1.103   .     S
C4712  H4730   1.105   .     S
C4713  H4731   1.087   .     S
C4713  H4732   1.105   .     S
C4713  H4733   1.121   .     S
C4714  H4734   1.071   .     S
C4714  H4735   1.129   .     S
C4714  H4736   1.135   .     S
C4715  H4737   1.086   .     S
C4715  H4738   1.100   .     S
C4715  H4739   1.068   .     S
Si4740 O4746   1.676   .     S
Si4740 O4747   1.675   .     S
Si4740 C4748   1.814   .     S
Si4740 C4749   1.820   .     S
Si4741 O4744   1.676   .     S
Si4741 O4745   1.676   .     S
Si4741 C4750   1.877   .     S
Si4741 C4751   1.765   .     S
Si4742 O4745   1.676   .     S
Si4742 O4746   1.675   .     S
Si4742 C4752   1.802   .     S
Si4742 C4753   1.828   .     S
Si4743 O4744   1.676   .     S
Si4743 O4747   1.676   .     S
Si4743 C4754   1.841   .     S
Si4743 C4755   1.815   .     S
C4748  H4756   1.083   .     S
C4748  H4757   1.046   .     S
C4748  H4758   1.142   .     S
C4749  H4759   1.038   .     S
C4749  H4760   1.133   .     S
C4749  H4761   1.125   .     S
C4750  H4762   1.148   .     S
C4750  H4763   1.119   .     S
C4750  H4764   1.089   .     S
C4751  H4765   1.114   .     S
C4751  H4766   1.090   .     S
C4751  H4767   1.139   .     S
C4752  H4768   1.132   .     S
C4752  H4769   1.085   .     S
C4752  H4770   1.119   .     S
C4753  H4771   1.140   .     S
C4753  H4772   1.091   .     S
C4753  H4773   1.158   .     S
C4754  H4774   1.156   .     S
C4754  H4775   1.167   .     S
C4754  H4776   1.086   .     S
C4755  H4777   1.132   .     S
C4755  H4778   1.108   .     S
C4755  H4779   1.097   .     S
Si4780 O4786   1.677   .     S
Si4780 O4787   1.675   .     S
Si4780 C4788   1.800   .     S
Si4780 C4789   1.866   .     S
Si4781 O4784   1.676   .     S
Si4781 O4785   1.675   .     S
Si4781 C4790   1.787   .     S
Si4781 C4791   1.841   .     S
Si4782 O4785   1.676   .     S
Si4782 O4786   1.676   .     S
Si4782 C4792   1.820   .     S
Si4782 C4793   1.787   .     S
Si4783 O4784   1.676   .     S
Si4783 O4787   1.676   .     S
Si4783 C4794   1.844   .     S
Si4783 C4795   1.784   .     S
C4788  H4796   1.137   .     S
C4788  H4797   1.099   .     S
C4788  H4798   1.095   .     S
C4789  H4799   1.103   .     S
C4789  H4800   1.116   .     S
C4789  H4801   1.120   .     S
C4790  H4802   1.114   .     S
C4790  H4803   1.116   .     S
C4790  H4804   1.091   .     S
C4791  H4805   1.128   .     S
C4791  H4806   1.104   .     S
C4791  H4807   1.105   .     S
C4792  H4808   1.099   .     S
C4792  H4809   1.111   .     S
C4792  H4810   1.101   .     S
C4793  H4811   1.095   .     S
C4793  H4812   1.063   .     S
C4793  H4813   1.106   .     S
C4794  H4814   1.097   .     S
C4794  H4815   1.077   .     S
C4794  H4816   1.097   .     S
C4795  H4817   1.109   .     S
C4795  H4818   1.137   .     S
C4795  H4819   1.084   .     S
