data_FOTNIN_freeONLY-prim-opt1-F23
_audit_creation_date              2020-12-04
_audit_creation_method            'Materials Studio'
_symmetry_space_group_name_H-M    'P1'
_symmetry_Int_Tables_number       1
_symmetry_cell_setting            triclinic
loop_
_symmetry_equiv_pos_as_xyz
  x,y,z
_cell_length_a                    39.2929
_cell_length_b                    39.2929
_cell_length_c                    39.2929
_cell_angle_alpha                 60.0000
_cell_angle_beta                  60.0000
_cell_angle_gamma                 60.0000
loop_
_atom_site_label
_atom_site_type_symbol
_atom_site_fract_x
_atom_site_fract_y
_atom_site_fract_z
_atom_site_charge
H1	H	0.7881	0.9242	0.6815	0.140324
H2	H	0.0698	0.1427	0.828	0.144377
H3	H	0.7179	0.9163	0.8291	0.137194
H4	H	0.8336	0.9229	0.2149	0.142934
C5	C	0.5523	0.7328	0.797	-0.18011
C6	C	0.7734	0.5904	0.9228	-0.122827
C7	C	0.8293	0.1593	0.0354	-0.149888
C8	C	0.1985	0.017	0.953	-0.157035
O9	O	0.9939	0.3434	0.7918	-0.811023
O10	O	0.9689	0.8394	0.277	-0.742414
O11	O	0.8396	0.9043	0.4768	-0.583792
O12	O	0.8835	0.754	0.9564	-0.84415
H13	H	0.7689	0.9755	0.8764	0.433448
H14	H	0.7359	0.952	0.9125	0.397161
H15	H	0.925	0.7894	0.6789	0.139422
H16	H	0.1434	0.0673	0.8288	0.143637
H17	H	0.9151	0.7215	0.827	0.150614
H18	H	0.9209	0.8325	0.2143	0.142639
C19	C	0.7355	0.5519	0.7956	-0.166566
C20	C	0.5907	0.7747	0.9235	-0.10576
C21	C	0.1589	0.8289	0.0378	-0.127737
C22	C	0.014	0.1989	0.9552	-0.127004
O23	O	0.3397	0.9981	0.8019	-0.92678
O24	O	0.8438	0.9709	0.275	-0.619022
O25	O	0.9063	0.8372	0.4752	-0.675834
O26	O	0.7517	0.8896	0.9482	-0.907514
H27	H	0.9804	0.773	0.8786	0.421465
H28	H	0.0161	0.7927	0.8434	0.368141
Zr29	Zr	0.8611	0.8594	0.9495	2.384981
C30	C	0.7748	0.7774	0.5329	0.080121
Zr31	Zr	0.4204	0.89	0.8895	2.301116
C32	C	0.1388	0.0174	0.0157	-0.05178
C33	C	0.9086	0.8014	0.7982	0.633565
C34	C	0.9755	0.2187	0.8332	-0.004632
C35	C	0.7098	0.6526	0.9277	0.81946
C36	C	0.7326	0.9252	0.6104	-0.099104
N37	N	0.6699	0.928	0.731	-0.777247
O38	O	0.9063	0.8294	0.3566	-0.980826
C39	C	0.2601	0.8387	0.9523	0.755647
O40	O	0.9353	0.3998	0.8334	-1.236922
C41	C	0.038	0.096	0.0389	0.805227
N42	N	0.0773	0.0176	0.827	-0.770108
H43	H	0.9584	0.8169	0.8145	0.540998
H44	H	0.0117	0.3163	0.8799	0.382361
H45	H	0.737	0.4331	0.8708	0.346303
H46	H	0.91	0.91	0.91	0.579965
O47	O	0.9	0.3	0.9	-1.363963
O48	O	0.8561	0.8563	0.4315	-0.865359
H49	H	0.924	0.7887	0.6059	0.134559
H50	H	0.1427	0.0699	0.9596	0.143868
H51	H	0.9153	0.7192	0.5363	0.1398
H52	H	0.9229	0.8336	0.0286	0.142571
C53	C	0.7328	0.5522	0.9185	-0.179554
C54	C	0.5904	0.7731	0.7138	-0.124878
C55	C	0.1593	0.8294	0.9759	-0.15335
C56	C	0.017	0.1985	0.8315	-0.159517
O57	O	0.3418	0.9956	0.8708	-0.801297
O58	O	0.8394	0.9689	0.9147	-0.733596
O59	O	0.904	0.8398	0.7793	-0.592072
O60	O	0.754	0.8835	0.4059	-0.844972
H61	H	0.9753	0.7689	0.3795	0.436147
H62	H	0.9518	0.7359	0.3999	0.397382
H63	H	0.7887	0.9254	0.6069	0.135795
H64	H	0.0673	0.1434	0.9605	0.143528
H65	H	0.7213	0.9152	0.5362	0.149107
H66	H	0.8326	0.9209	0.0322	0.140696
C67	C	0.5519	0.7357	0.918	-0.155278
C68	C	0.7747	0.5903	0.7121	-0.095468
C69	C	0.8289	0.1589	0.9744	-0.125346
C70	C	0.1989	0.014	0.8319	-0.121785
O71	O	0.9981	0.3396	0.8603	-0.935479
O72	O	0.9709	0.8437	0.9104	-0.611969
O73	O	0.8357	0.908	0.7812	-0.683464
O74	O	0.8896	0.7517	0.4106	-0.905024
H75	H	0.773	0.9789	0.3685	0.423187
H76	H	0.7915	0.0157	0.3467	0.367623
Zr77	Zr	0.8595	0.861	0.33	2.357801
C78	C	0.7773	0.7759	0.9142	0.073839
Zr79	Zr	0.8899	0.4207	0.8005	2.291651
C80	C	0.0173	0.1388	0.8281	-0.052543
C81	C	0.8012	0.9087	0.4919	0.626845
C82	C	0.2187	0.9755	0.9726	-0.011435
C83	C	0.6525	0.7094	0.7105	0.819338
C84	C	0.9251	0.7332	0.7313	-0.0909
N85	N	0.9277	0.6706	0.6707	-0.77812
O86	O	0.8296	0.9062	0.9076	-0.964244
C87	C	0.8387	0.2601	0.949	0.755703
O88	O	0.3998	0.9353	0.8316	-1.366898
C89	C	0.096	0.0381	0.8271	0.805124
N90	N	0.0176	0.0773	0.0781	-0.770289
H91	H	0.8169	0.9586	0.4099	0.535286
H92	H	0.3164	0.0117	0.792	0.379315
H93	H	0.433	0.7371	0.9595	0.350869
H94	H	0.9101	0.9099	0.27	0.5219
O95	O	0.3	0.9	0.9	-1.538963
O96	O	0.8562	0.8563	0.856	-0.860859
H97	H	0.6812	0.606	0.7888	0.136273
H98	H	0.8279	0.9595	0.0699	0.144207
H99	H	0.8291	0.5364	0.7192	0.139109
H100	H	0.2149	0.0286	0.8336	0.142531
C101	C	0.7964	0.9185	0.5523	-0.178394
C102	C	0.9227	0.7138	0.773	-0.124468
C103	C	0.0354	0.976	0.8294	-0.152405
C104	C	0.9531	0.8314	0.1985	-0.162082
O105	O	0.7917	0.8709	0.9956	-0.800978
O106	O	0.277	0.9147	0.9689	-0.733484
O107	O	0.4767	0.7793	0.8399	-0.592211
O108	O	0.9566	0.4058	0.8837	-0.843514
H109	H	0.8763	0.3795	0.769	0.436677
H110	H	0.9123	0.4	0.7359	0.398347
H111	H	0.6791	0.6067	0.9254	0.136242
H112	H	0.8288	0.9604	0.1434	0.143784
H113	H	0.8273	0.5362	0.9152	0.150118
H114	H	0.2143	0.0323	0.9209	0.14085
C115	C	0.7945	0.9178	0.7357	-0.155537
C116	C	0.9229	0.7121	0.5902	-0.084146
C117	C	0.0378	0.9744	0.1589	-0.124355
C118	C	0.9552	0.8319	0.014	-0.121601
O119	O	0.8019	0.8603	0.3396	-0.936319
O120	O	0.275	0.9104	0.8437	-0.610971
O121	O	0.475	0.7812	0.9081	-0.683182
O122	O	0.9481	0.4108	0.7516	-0.906768
H123	H	0.8785	0.3681	0.9804	0.420671
H124	H	0.8434	0.3478	0.0162	0.367441
Zr125	Zr	0.9493	0.3302	0.8612	2.363019
C126	C	0.5326	0.9142	0.7759	0.066261
Zr127	Zr	0.889	0.8004	0.4204	2.280197
C128	C	0.0157	0.8281	0.1388	-0.054297
C129	C	0.7983	0.4919	0.9086	0.623645
C130	C	0.8332	0.9726	0.9755	-0.012746
C131	C	0.9276	0.7105	0.7092	0.820083
C132	C	0.6103	0.7314	0.7332	-0.096026
N133	N	0.7309	0.6708	0.6706	-0.770697
O134	O	0.3566	0.9077	0.9063	-0.958947
C135	C	0.9523	0.9489	0.2601	0.752833
O136	O	0.8333	0.8316	0.9353	-1.353769
C137	C	0.0389	0.8271	0.038	0.805326
N138	N	0.827	0.0781	0.0773	-0.771
H139	H	0.8145	0.41	0.9586	0.536106
H140	H	0.8799	0.792	0.0116	0.379252
H141	H	0.8704	0.9595	0.7372	0.350368
H142	H	0.91	0.27	0.9101	0.519367
O143	O	0.9	0.9	0.9	-1.536343
O144	O	0.4314	0.8561	0.8563	-0.861153
H145	H	0.6062	0.6815	0.9243	0.139772
H146	H	0.9596	0.8279	0.1427	0.143797
H147	H	0.5366	0.8291	0.9166	0.13706
H148	H	0.0286	0.2149	0.9229	0.144292
C149	C	0.9182	0.7969	0.7327	-0.176163
C150	C	0.7133	0.9228	0.5905	-0.12363
C151	C	0.9759	0.0354	0.1593	-0.149942
C152	C	0.8315	0.953	0.017	-0.156407
O153	O	0.8708	0.7917	0.3418	-0.79396
O154	O	0.9147	0.2771	0.8394	-0.739763
O155	O	0.7793	0.4768	0.9043	-0.581904
O156	O	0.4061	0.9564	0.754	-0.843492
H157	H	0.3792	0.8764	0.9755	0.433314
H158	H	0.3995	0.9125	0.9521	0.396986
H159	H	0.6066	0.6789	0.7895	0.137242
H160	H	0.9605	0.8288	0.0673	0.143971
H161	H	0.5363	0.8272	0.7216	0.150915
H162	H	0.0322	0.2143	0.8326	0.141756
C163	C	0.917	0.7956	0.5519	-0.170086
C164	C	0.7112	0.9233	0.7748	-0.105354
C165	C	0.9744	0.0378	0.8289	-0.126773
C166	C	0.8319	0.9552	0.1989	-0.125291
O167	O	0.8603	0.8019	0.9981	-0.927188
O168	O	0.9104	0.275	0.9709	-0.620388
O169	O	0.7812	0.4753	0.8372	-0.678716
O170	O	0.4105	0.9482	0.8896	-0.907486
H171	H	0.3681	0.8785	0.773	0.420275
H172	H	0.3478	0.8434	0.7927	0.36776
Zr173	Zr	0.33	0.9495	0.8593	2.385317
C174	C	0.9153	0.5328	0.7774	0.073087
Zr175	Zr	0.8002	0.8895	0.8899	2.300503
C176	C	0.8281	0.0157	0.0174	-0.051328
C177	C	0.4919	0.7982	0.8014	0.631553
C178	C	0.9726	0.8332	0.2187	-0.002845
C179	C	0.7099	0.9277	0.6527	0.822286
C180	C	0.7317	0.6104	0.9253	-0.098473
N181	N	0.6711	0.731	0.928	-0.774742
O182	O	0.9067	0.357	0.8303	-0.9906
C183	C	0.9489	0.9523	0.8387	0.755924
O184	O	0.8315	0.8332	0.3998	-1.180473
C185	C	0.827	0.0388	0.096	0.806579
N186	N	0.0781	0.827	0.0175	-0.770312
H187	H	0.4102	0.8146	0.8168	0.538443
H188	H	0.7921	0.8799	0.3164	0.38218
H189	H	0.9592	0.8707	0.4331	0.347854
H190	H	0.27	0.91	0.91	0.581594
O191	O	0.9001	0.9	0.2999	-1.373223
O192	O	0.8561	0.4315	0.8564	-0.863052
H193	H	0.6812	0.7886	0.9243	0.133761
H194	H	0.8279	0.0698	0.1427	0.143563
H195	H	0.8292	0.7194	0.9153	0.13941
H196	H	0.2149	0.8336	0.9229	0.142332
C197	C	0.7967	0.5519	0.7339	-0.179141
C198	C	0.9224	0.7738	0.5902	-0.10398
C199	C	0.0354	0.8293	0.1593	-0.150077
C200	C	0.953	0.1985	0.017	-0.161448
O201	O	0.7917	0.9939	0.3418	-0.798463
O202	O	0.277	0.9689	0.8395	-0.732605
O203	O	0.4767	0.8397	0.9043	-0.582165
O204	O	0.9566	0.8836	0.7539	-0.839818
H205	H	0.8763	0.7689	0.9752	0.436395
H206	H	0.9123	0.7359	0.9517	0.397424
H207	H	0.6788	0.9252	0.7894	0.139555
H208	H	0.8288	0.1434	0.0674	0.143489
H209	H	0.8271	0.9152	0.7213	0.149828
H210	H	0.2143	0.9209	0.8326	0.140621
C211	C	0.7948	0.7357	0.552	-0.164979
C212	C	0.9231	0.5911	0.7744	-0.09687
C213	C	0.0378	0.1589	0.8289	-0.127321
C214	C	0.9552	0.014	0.1989	-0.127805
O215	O	0.8019	0.3396	0.9982	-0.932587
O216	O	0.275	0.8437	0.9709	-0.611109
O217	O	0.4752	0.9063	0.8372	-0.675694
O218	O	0.9482	0.7517	0.8895	-0.907983
H219	H	0.8786	0.9804	0.773	0.423712
H220	H	0.8434	0.0162	0.7927	0.368628
Zr221	Zr	0.9495	0.8612	0.8593	2.374372
C222	C	0.5328	0.7747	0.7777	0.069628
Zr223	Zr	0.8891	0.4206	0.8902	2.285814
C224	C	0.0157	0.1388	0.0174	-0.053564
C225	C	0.7983	0.9086	0.8012	0.628106
C226	C	0.8332	0.9755	0.2187	-0.004841
C227	C	0.9276	0.7099	0.6521	0.835976
C228	C	0.6103	0.7331	0.9254	-0.08922
N229	N	0.731	0.6705	0.9278	-0.773955
O230	O	0.3566	0.9062	0.8295	-0.960695
C231	C	0.9522	0.2602	0.8387	0.754253
O232	O	0.8333	0.9354	0.3997	-1.270237
C233	C	0.0389	0.0381	0.096	0.806087
N234	N	0.827	0.0773	0.0176	-0.77043
H235	H	0.8146	0.9585	0.8168	0.548049
H236	H	0.8797	0.0118	0.3162	0.384186
H237	H	0.8706	0.7371	0.433	0.346863
H238	H	0.6059	0.924	0.7888	0.136084
H239	H	0.9596	0.1427	0.0699	0.14369
H240	H	0.5363	0.9153	0.7192	0.138612
H241	H	0.0286	0.9229	0.8336	0.142747
C242	C	0.9174	0.7339	0.5518	-0.187098
C243	C	0.7135	0.5903	0.7738	-0.110099
C244	C	0.9759	0.1593	0.8294	-0.151929
C245	C	0.8315	0.017	0.1985	-0.161781
O246	O	0.8709	0.3418	0.9956	-0.796391
O247	O	0.9147	0.8394	0.9689	-0.733069
O248	O	0.7793	0.9043	0.8396	-0.583
O249	O	0.406	0.754	0.8836	-0.839431
H250	H	0.3795	0.9752	0.7689	0.435924
H251	H	0.4	0.9518	0.7359	0.397378
H252	H	0.6065	0.7893	0.9254	0.139781
H253	H	0.9605	0.0673	0.1434	0.143474
H254	H	0.5364	0.7214	0.9153	0.149702
H255	H	0.0322	0.8326	0.9209	0.140555
C256	C	0.9177	0.5519	0.7357	-0.160577
C257	C	0.7115	0.7745	0.591	-0.092612
C258	C	0.9744	0.8289	0.1589	-0.125008
C259	C	0.8319	0.1989	0.014	-0.128047
O260	O	0.8603	0.9981	0.3396	-0.939428
O261	O	0.9104	0.9709	0.8437	-0.611839
O262	O	0.7812	0.8373	0.9063	-0.674898
O263	O	0.4106	0.8895	0.7517	-0.907369
H264	H	0.368	0.773	0.9804	0.423929
H265	H	0.3477	0.7926	0.0162	0.369029
Zr266	Zr	0.33	0.8593	0.8612	2.37113
C267	C	0.9152	0.7775	0.7745	0.066104
Zr268	Zr	0.8002	0.8899	0.4207	2.289524
C269	C	0.8281	0.0173	0.1388	-0.05391
C270	C	0.4918	0.8012	0.9087	0.629462
C271	C	0.9726	0.2187	0.9755	-0.002877
C272	C	0.7104	0.6522	0.7098	0.825718
C273	C	0.7312	0.9253	0.7331	-0.090603
N274	N	0.6706	0.9278	0.6706	-0.774473
O275	O	0.9076	0.8296	0.9062	-0.962885
C276	C	0.949	0.8387	0.2601	0.756012
O277	O	0.8315	0.3997	0.9355	-1.273896
C278	C	0.827	0.096	0.0381	0.805905
N279	N	0.0782	0.0176	0.0773	-0.770512
H280	H	0.41	0.8169	0.9586	0.552739
H281	H	0.7922	0.3162	0.0118	0.382152
H282	H	0.9592	0.4332	0.7372	0.349578
H283	H	0.7885	0.6813	0.6061	0.136512
H284	H	0.0699	0.8279	0.9595	0.14417
H285	H	0.718	0.8291	0.5371	0.141754
H286	H	0.8336	0.2149	0.0286	0.14451
C287	C	0.5521	0.7967	0.9185	-0.172946
C288	C	0.773	0.9228	0.7137	-0.126433
C289	C	0.8294	0.0354	0.9759	-0.152782
C290	C	0.1985	0.953	0.8314	-0.157151
O291	O	0.9956	0.7917	0.8709	-0.798101
O292	O	0.9689	0.277	0.9147	-0.736948
O293	O	0.8397	0.477	0.781	-0.592074
O294	O	0.8836	0.9567	0.4057	-0.84512
H295	H	0.769	0.8763	0.3794	0.431527
H296	H	0.7357	0.9123	0.3999	0.39835
H297	H	0.9249	0.6797	0.6059	0.133908
H298	H	0.1434	0.8288	0.9604	0.143963
H299	H	0.9142	0.8281	0.5365	0.152822
H300	H	0.9209	0.2143	0.0322	0.142289
C301	C	0.7355	0.7956	0.9171	-0.168375
C302	C	0.5902	0.9229	0.7121	-0.093983
C303	C	0.1589	0.0378	0.9744	-0.126854
C304	C	0.014	0.9552	0.8319	-0.12256
O305	O	0.3396	0.8019	0.8603	-0.929402
O306	O	0.8437	0.275	0.9104	-0.62322
O307	O	0.9081	0.475	0.7813	-0.685123
O308	O	0.7516	0.9481	0.4106	-0.910291
H309	H	0.9803	0.8785	0.3681	0.423285
H310	H	0.0162	0.8434	0.3478	0.369517
Zr311	Zr	0.8612	0.9493	0.33	2.36325
C312	C	0.7747	0.5327	0.9154	0.071215
Zr313	Zr	0.4205	0.8889	0.8004	2.296424
C314	C	0.1388	0.0157	0.8281	-0.052489
C315	C	0.907	0.7997	0.492	0.628592
C316	C	0.9755	0.8332	0.9726	-0.012327
C317	C	0.7092	0.9278	0.7105	0.819937
C318	C	0.733	0.61	0.732	-0.107669
N319	N	0.6704	0.7306	0.6712	-0.7698
O320	O	0.9062	0.3567	0.9077	-0.983209
C321	C	0.2601	0.9523	0.9489	0.756706
O322	O	0.9354	0.8334	0.8315	-1.284567
C323	C	0.038	0.0389	0.8271	0.805419
N324	N	0.0773	0.827	0.0781	-0.770728
H325	H	0.9584	0.8145	0.4101	0.549976
H326	H	0.0118	0.8798	0.7921	0.38065
H327	H	0.7371	0.8707	0.9591	0.347995
H328	H	0.9239	0.6061	0.6813	0.139509
H329	H	0.1427	0.9596	0.8279	0.143985
H330	H	0.9162	0.5371	0.829	0.140118
H331	H	0.9229	0.0286	0.2149	0.144183
C332	C	0.7328	0.9184	0.7967	-0.173294
C333	C	0.5905	0.7137	0.9229	-0.126159
C334	C	0.1593	0.976	0.0354	-0.152538
C335	C	0.017	0.8315	0.953	-0.156371
O336	O	0.3418	0.8708	0.7917	-0.797047
O337	O	0.8394	0.9147	0.277	-0.737334
O338	O	0.9023	0.781	0.4769	-0.585274
O339	O	0.7539	0.4057	0.9568	-0.845685
H340	H	0.9754	0.3792	0.8764	0.432697
H341	H	0.9522	0.3995	0.9125	0.396981
H342	H	0.7894	0.606	0.6797	0.136565
H343	H	0.0673	0.9605	0.8288	0.143736
H344	H	0.7211	0.5366	0.8281	0.152779
H345	H	0.8327	0.0322	0.2143	0.142507
C346	C	0.5518	0.917	0.7956	-0.162373
C347	C	0.7748	0.7122	0.9229	-0.0873
C348	C	0.8289	0.9744	0.0378	-0.127337
C349	C	0.1989	0.8319	0.9552	-0.121122
O350	O	0.9981	0.8603	0.8019	-0.929743
O351	O	0.9709	0.9104	0.275	-0.62069
O352	O	0.8356	0.7813	0.475	-0.686429
O353	O	0.8895	0.4106	0.9483	-0.907402
H354	H	0.773	0.3681	0.8785	0.421352
H355	H	0.7926	0.3478	0.8434	0.369386
Zr356	Zr	0.8594	0.33	0.9495	2.368389
C357	C	0.7772	0.9154	0.5327	0.06732
Zr358	Zr	0.8902	0.8004	0.8889	2.295926
C359	C	0.0174	0.8281	0.0157	-0.05157
C360	C	0.8012	0.4921	0.7997	0.63171
C361	C	0.2187	0.9726	0.8332	-0.010719
C362	C	0.6525	0.7104	0.9278	0.814953
C363	C	0.9249	0.732	0.6099	-0.119727
N364	N	0.9278	0.6713	0.7304	-0.776159
O365	O	0.8303	0.9067	0.357	-0.995525
C366	C	0.8387	0.9489	0.9522	0.75897
O367	O	0.3997	0.8315	0.8333	-1.276006
C368	C	0.096	0.8271	0.0388	0.805145
N369	N	0.0175	0.0782	0.827	-0.770318
H370	H	0.8165	0.4104	0.8147	0.531834
H371	H	0.3164	0.792	0.8799	0.380502
H372	H	0.433	0.9592	0.8707	0.348404
H373	H	0.9241	0.6816	0.7881	0.13892
H374	H	0.1427	0.8279	0.0698	0.144318
H375	H	0.9162	0.8293	0.7178	0.138821
H376	H	0.9229	0.2149	0.8336	0.143524
C377	C	0.7329	0.7967	0.5525	-0.184874
C378	C	0.5902	0.9224	0.7739	-0.112529
C379	C	0.1593	0.0354	0.8293	-0.152625
C380	C	0.017	0.953	0.1985	-0.161989
O381	O	0.3418	0.7917	0.9956	-0.799341
O382	O	0.8395	0.277	0.9689	-0.743277
O383	O	0.9041	0.4768	0.8398	-0.593551
O384	O	0.7539	0.9567	0.8836	-0.843437
H385	H	0.9753	0.8764	0.7689	0.430831
H386	H	0.9521	0.9125	0.7358	0.396745
H387	H	0.7895	0.6798	0.925	0.134373
H388	H	0.0674	0.8288	0.1434	0.143468
H389	H	0.721	0.8282	0.9144	0.152602
H390	H	0.8325	0.2143	0.9209	0.14242
C391	C	0.5519	0.7946	0.7359	-0.156319
C392	C	0.7742	0.9234	0.5909	-0.095164
C393	C	0.8289	0.0378	0.1589	-0.124814
C394	C	0.1989	0.9552	0.014	-0.122353
O395	O	0.9981	0.8019	0.3397	-0.930847
O396	O	0.9709	0.2751	0.8437	-0.624408
O397	O	0.8357	0.475	0.908	-0.683611
O398	O	0.8895	0.9483	0.7516	-0.909069
H399	H	0.773	0.8785	0.9803	0.426441
H400	H	0.7927	0.8434	0.0161	0.370284
Zr401	Zr	0.8594	0.9495	0.8611	2.378919
C402	C	0.7773	0.5327	0.7758	0.072758
Zr403	Zr	0.89	0.8895	0.4204	2.292012
C404	C	0.0174	0.0157	0.1388	-0.05446
C405	C	0.8012	0.7998	0.907	0.631357
C406	C	0.2187	0.8332	0.9755	-0.012394
C407	C	0.652	0.9276	0.7099	0.825867
C408	C	0.925	0.6105	0.7328	-0.096387
N409	N	0.9279	0.7311	0.6699	-0.780474
O410	O	0.8294	0.3566	0.9063	-0.980555
C411	C	0.8387	0.9522	0.2601	0.75265
O412	O	0.3997	0.8333	0.9355	-1.319347
C413	C	0.096	0.0389	0.038	0.804734
N414	N	0.0176	0.827	0.0773	-0.770471
H415	H	0.8169	0.8145	0.9583	0.561632
H416	H	0.3163	0.8798	0.0117	0.379913
H417	H	0.433	0.8705	0.7371	0.348978
H418	H	0.7887	0.606	0.9242	0.138799
H419	H	0.0699	0.9596	0.1427	0.143479
H420	H	0.7179	0.5368	0.9166	0.13836
H421	H	0.8336	0.0286	0.9229	0.142711
C422	C	0.5518	0.9175	0.734	-0.178486
C423	C	0.7734	0.7135	0.5905	-0.116096
C424	C	0.8294	0.9759	0.1593	-0.151085
C425	C	0.1985	0.8315	0.017	-0.156079
O426	O	0.9956	0.8708	0.3418	-0.798411
O427	O	0.9689	0.9147	0.8394	-0.731814
O428	O	0.8397	0.7811	0.9024	-0.5865
O429	O	0.8835	0.4061	0.7541	-0.84752
H430	H	0.7689	0.3791	0.9756	0.433569
H431	H	0.7359	0.3994	0.9522	0.397428
H432	H	0.9249	0.6071	0.7889	0.137324
H433	H	0.1434	0.9605	0.0673	0.143897
H434	H	0.915	0.5362	0.7215	0.151467
H435	H	0.9209	0.0323	0.8326	0.140628
C436	C	0.7355	0.9179	0.5519	-0.155253
C437	C	0.5908	0.7113	0.7749	-0.096758
C438	C	0.1589	0.9744	0.8289	-0.126727
C439	C	0.014	0.8319	0.1989	-0.127356
O440	O	0.3396	0.8603	0.9982	-0.928496
O441	O	0.8437	0.9104	0.9709	-0.613011
O442	O	0.9082	0.7813	0.8356	-0.683401
O443	O	0.7517	0.4105	0.8896	-0.905639
H444	H	0.9788	0.3699	0.7729	0.427258
H445	H	0.0153	0.3486	0.7922	0.370585
Zr446	Zr	0.8609	0.33	0.8595	2.369915
C447	C	0.7746	0.9153	0.7774	0.065989
Zr448	Zr	0.4206	0.8002	0.8902	2.294041
C449	C	0.1388	0.8281	0.0173	-0.051059
C450	C	0.9086	0.4919	0.8013	0.628028
C451	C	0.9755	0.9726	0.2187	-0.00297
C452	C	0.7097	0.7101	0.6527	0.816428
C453	C	0.7331	0.732	0.925	-0.115814
N454	N	0.6704	0.6712	0.928	-0.772619
O455	O	0.9062	0.9076	0.8295	-0.967846
C456	C	0.2601	0.9489	0.8387	0.755296
O457	O	0.9353	0.8316	0.3998	-1.321345
C458	C	0.0381	0.827	0.096	0.806582
N459	N	0.0773	0.0782	0.0175	-0.769564
H460	H	0.9584	0.4102	0.817	0.524377
H461	H	0.0117	0.792	0.3164	0.381282
H462	H	0.7376	0.9596	0.4328	0.351586
H463	H	0.606	0.7882	0.6816	0.138719
H464	H	0.9596	0.0699	0.8279	0.14401
H465	H	0.5368	0.718	0.8294	0.139867
H466	H	0.0286	0.8336	0.2149	0.144229
C467	C	0.9182	0.5525	0.7966	-0.181606
C468	C	0.7135	0.7738	0.9226	-0.105005
C469	C	0.9759	0.8294	0.0354	-0.153124
C470	C	0.8314	0.1985	0.9531	-0.161893
O471	O	0.8709	0.9956	0.7917	-0.799224
O472	O	0.9147	0.9689	0.277	-0.739564
O473	O	0.7793	0.8398	0.4768	-0.598152
O474	O	0.4057	0.8836	0.9567	-0.842835
H475	H	0.3794	0.7689	0.8764	0.430367
H476	H	0.3998	0.7358	0.9124	0.396363
H477	H	0.6059	0.9249	0.6798	0.135931
H478	H	0.9605	0.1435	0.8288	0.143777
H479	H	0.5364	0.9142	0.8282	0.151385
H480	H	0.0323	0.9209	0.2143	0.142398
C481	C	0.9177	0.7358	0.7945	-0.156911
C482	C	0.7114	0.5908	0.9235	-0.096401
C483	C	0.9744	0.1589	0.0378	-0.125221
C484	C	0.8319	0.014	0.9552	-0.12198
O485	O	0.8603	0.3397	0.8019	-0.93242
O486	O	0.9104	0.8437	0.275	-0.623682
O487	O	0.7813	0.908	0.475	-0.683764
O488	O	0.4106	0.7516	0.9483	-0.909215
H489	H	0.3681	0.9803	0.8785	0.426757
H490	H	0.3478	0.0162	0.8434	0.370722
Zr491	Zr	0.33	0.8612	0.9495	2.379154
C492	C	0.9142	0.7758	0.5326	0.077884
Zr493	Zr	0.8002	0.4204	0.8895	2.287372
C494	C	0.8281	0.1388	0.0157	-0.053674
C495	C	0.492	0.907	0.7997	0.636731
C496	C	0.9726	0.9755	0.8332	-0.011302
C497	C	0.7105	0.7098	0.9277	0.82899
C498	C	0.7316	0.7329	0.6105	-0.102704
N499	N	0.671	0.67	0.731	-0.777979
O500	O	0.9078	0.9062	0.3566	-0.974158
C501	C	0.9489	0.2601	0.9523	0.75019
O502	O	0.8315	0.9355	0.8333	-1.306353
C503	C	0.8271	0.038	0.0389	0.805284
N504	N	0.0781	0.0773	0.827	-0.769612
H505	H	0.4101	0.9584	0.8145	0.566526
H506	H	0.7921	0.0117	0.8798	0.380095
H507	H	0.9594	0.7372	0.8705	0.349157
H508	H	0.6812	0.9241	0.606	0.139006
H509	H	0.8279	0.1427	0.9596	0.143907
H510	H	0.8287	0.9166	0.5369	0.13823
H511	H	0.2149	0.9229	0.0286	0.142829
C512	C	0.7967	0.734	0.9175	-0.183548
C513	C	0.9226	0.5905	0.7135	-0.122681
C514	C	0.0354	0.1593	0.9759	-0.150727
C515	C	0.953	0.017	0.8315	-0.156793
O516	O	0.7917	0.3418	0.8708	-0.797879
O517	O	0.277	0.8394	0.9147	-0.731202
O518	O	0.4769	0.9023	0.781	-0.587259
O519	O	0.9564	0.754	0.4061	-0.84559
H520	H	0.8763	0.9755	0.3792	0.436092
H521	H	0.9125	0.9522	0.3994	0.397321
H522	H	0.6791	0.7891	0.6068	0.135452
H523	H	0.8288	0.0673	0.9605	0.143795
H524	H	0.8273	0.7214	0.5363	0.152813
H525	H	0.2143	0.8326	0.0322	0.140462
C526	C	0.7948	0.5518	0.9178	-0.156985
C527	C	0.9231	0.7749	0.7112	-0.103168
C528	C	0.0378	0.8289	0.9744	-0.127343
C529	C	0.9552	0.199	0.8319	-0.124996
O530	O	0.8019	0.9981	0.8603	-0.92922
O531	O	0.275	0.9709	0.9104	-0.611793
O532	O	0.475	0.8356	0.7813	-0.684871
O533	O	0.9482	0.8896	0.4105	-0.906736
H534	H	0.8785	0.773	0.3681	0.414452
H535	H	0.8434	0.7926	0.3478	0.366741
Zr536	Zr	0.9495	0.8593	0.3301	2.37498
C537	C	0.5326	0.7774	0.9155	0.064447
Zr538	Zr	0.8891	0.8902	0.8001	2.293454
C539	C	0.0157	0.0174	0.8281	-0.052102
C540	C	0.7983	0.8013	0.492	0.624087
C541	C	0.8332	0.2187	0.9726	-0.002776
C542	C	0.9276	0.6527	0.71	0.821036
C543	C	0.6099	0.925	0.7321	-0.106307
N544	N	0.7304	0.928	0.6712	-0.776401
O545	O	0.3567	0.8295	0.9077	-0.9669
C546	C	0.9523	0.8387	0.9489	0.757526
O547	O	0.8332	0.3999	0.8316	-1.275294
C548	C	0.0389	0.0961	0.8271	0.805341
N549	N	0.827	0.0175	0.0781	-0.770925
H550	H	0.8147	0.8165	0.4104	0.502962
H551	H	0.8799	0.3164	0.792	0.381072
H552	H	0.8704	0.433	0.9595	0.349385
loop_
_geom_bond_atom_site_label_1
_geom_bond_atom_site_label_2
_geom_bond_distance
_geom_bond_site_symmetry_2
_ccdc_geom_bond_type
H1     C288    1.081   .     S
H2     C213    1.079   .     S
H3     C332    1.081   .     S
H4     C166    1.082   .     S
C5     C222    1.394   .     S
C5     C437    1.378   .     D
C5     H465    1.081   .     S
C6     C180    1.393   .     D
C6     H418    1.084   .     S
C6     C526    1.380   .     S
C7     H208    1.083   .     S
C7     C259    1.380   .     D
C7     C494    1.396   .     S
C8     C82     1.394   1_545 D
C8     H114    1.081   .     S
C8     C303    1.380   .     S
O9     Zr125   2.344   .     S
O9     H444    1.018   .     S
O9     H445    0.968   1_655 S
O10    C276    1.270   .     D
O10    Zr536   2.234   .     S
O11    C81     1.267   .     D
O11    Zr403   2.218   .     S
O12    H205    1.013   .     S
O12    H206    0.969   .     S
O12    Zr358   2.318   .     S
H13    O384    1.016   .     S
H14    O384    0.970   .     S
H15    C527    1.080   .     S
H16    C379    1.080   .     S
H17    C481    1.080   .     S
H18    C104    1.084   .     S
C19    C243    1.379   .     D
C19    H344    1.078   .     S
C19    C402    1.394   .     S
C20    C228    1.395   .     S
C20    H252    1.080   .     S
C20    C287    1.380   .     D
C21    H374    1.078   .     S
C21    C425    1.380   .     D
C21    C449    1.400   .     S
C22    H148    1.082   .     S
C22    C271    1.395   1_455 S
C22    C514    1.378   .     D
O23    H92     0.966   1_565 S
O23    Zr173   2.107   .     S
O24    Zr311   2.218   .     S
O24    C411    1.272   .     D
O25    C315    1.270   .     D
O25    Zr403   2.215   .     S
O26    Zr175   2.125   .     S
O26    H327    0.962   .     S
H27    O291    1.012   .     S
H28    O291    0.968   1_455 S
Zr29   O86     2.088   .     S
Zr29   O105    2.360   .     S
Zr29   O136    2.261   .     S
Zr29   O143    2.242   .     S
Zr29   O167    2.109   .     S
Zr29   O247    2.233   .     S
Zr29   O275    2.085   .     S
Zr29   O441    2.220   .     S
C30    C211    1.392   .     S
C30    C377    1.395   .     D
C30    C540    1.480   .     S
Zr31   O88     2.313   .     S
Zr31   O134    2.065   .     S
Zr31   O144    2.064   .     S
Zr31   O170    2.121   .     S
Zr31   O203    2.214   .     S
Zr31   O217    2.215   .     S
Zr31   O412    2.282   .     S
Zr31   O474    2.308   .     S
C32    C303    1.397   1_554 D
C32    C334    1.396   1_545 S
C32    C413    1.468   .     S
C33    O59     1.266   .     D
C33    C267    1.485   .     S
C33    O442    1.270   .     S
C34    C56     1.394   1_655 S
C34    C231    1.485   .     S
C34    C529    1.391   .     D
C35    C180    1.465   .     S
C35    N229    1.334   .     S
C35    N454    1.338   .     D
C36    C150    1.391   .     D
C36    C179    1.470   .     S
C36    C392    1.396   .     S
N37    C317    1.336   .     D
N37    C407    1.338   .     S
O38    Zr77    2.087   .     S
O38    Zr127   2.064   .     S
O38    Zr536   2.085   .     S
C39    O216    1.266   .     D
C39    C406    1.482   .     S
C39    O517    1.273   .     S
O40    Zr79    2.304   .     S
O40    Zr125   2.255   .     S
O40    Zr223   2.288   .     S
O40    H460    0.964   .     S
C41    N90     1.333   .     S
C41    C224    1.468   .     S
C41    N459    1.338   .     D
N42    C89     1.337   .     S
N42    C323    1.338   .     D
H43    O322    0.963   .     S
H44    O71     0.966   1_455 S
H45    O443    0.962   .     S
H46    O143    0.962   .     S
O47    Zr125   2.241   .     S
O47    H142    0.962   .     S
O47    Zr356   2.242   .     S
O47    Zr446   2.245   .     S
O48    Zr127   2.059   .     S
O48    Zr268   2.054   .     S
O48    Zr403   2.063   .     S
H49    C198    1.079   .     S
H50    C303    1.081   .     S
H51    C242    1.078   .     S
H52    C118    1.082   .     S
C53    C312    1.394   .     S
C53    H420    1.076   .     S
C53    C482    1.380   .     D
C54    C132    1.394   .     D
C54    C391    1.378   .     S
C54    H463    1.080   .     S
C55    H298    1.082   .     S
C55    C349    1.378   .     S
C55    C449    1.395   1_556 D
C56    C34     1.394   1_455 S
C56    H162    1.080   .     S
C56    C213    1.380   .     D
O57    Zr173   2.360   .     S
O57    H489    1.015   .     S
O57    H490    0.967   1_565 S
O58    C366    1.270   .     D
O58    Zr401   2.233   .     S
O59    Zr538   2.217   .     S
O60    Zr268   2.314   .     S
O60    H295    1.013   .     S
O60    H296    0.971   .     S
H61    O519    1.017   .     S
H62    O519    0.971   .     S
H63    C392    1.086   .     S
H64    C514    1.079   .     S
H65    C436    1.083   .     S
H66    C152    1.080   .     S
C67    H254    1.079   .     S
C67    C333    1.378   .     S
C67    C537    1.393   .     D
C68    C197    1.379   .     S
C68    C318    1.397   .     D
C68    H342    1.082   .     S
C69    C470    1.378   .     S
C69    C494    1.397   1_556 D
C69    H509    1.078   .     S
C70    H100    1.082   .     S
C70    C361    1.395   1_545 D
C70    C379    1.380   .     S
O71    H44     0.966   1_655 S
O71    Zr125   2.108   .     S
O72    Zr221   2.223   .     S
O72    C546    1.266   .     D
O73    C225    1.268   .     D
O73    Zr538   2.239   .     S
O74    Zr127   2.120   .     S
O74    H237    0.963   .     S
H75    O201    1.016   .     S
H76    O201    0.963   1_545 S
Zr77   O119    2.113   .     S
Zr77   O153    2.358   .     S
Zr77   O184    2.261   .     S
Zr77   O191    2.244   .     S
Zr77   O337    2.235   .     S
Zr77   O365    2.072   .     S
Zr77   O486    2.218   .     S
C78    C301    1.393   .     S
C78    C405    1.481   .     S
C78    C512    1.392   .     D
Zr79   O122    2.130   .     S
Zr79   O182    2.064   .     S
Zr79   O192    2.054   .     S
Zr79   O293    2.196   .     S
Zr79   O307    2.238   .     S
Zr79   O429    2.316   .     S
Zr79   O547    2.286   .     S
C80    C213    1.400   .     S
C80    C244    1.395   1_455 D
C80    C548    1.465   .     S
C81    C357    1.480   .     S
C81    O487    1.270   .     S
C82    C8      1.394   1_565 D
C82    C321    1.482   .     S
C82    C394    1.395   1_556 S
C83    C132    1.467   .     S
C83    N319    1.337   .     D
C83    N499    1.337   .     S
C84    C102    1.394   .     D
C84    C131    1.470   .     S
C84    C527    1.398   .     S
N85    C227    1.337   .     D
N85    C542    1.338   .     S
O86    Zr175   2.066   .     S
O86    Zr401   2.085   .     S
C87    O306    1.269   .     D
C87    O382    1.272   .     S
C87    C541    1.482   .     S
O88    Zr173   2.261   .     S
O88    Zr313   2.290   .     S
O88    H505    0.962   .     S
C89    C314    1.468   .     S
C89    N504    1.334   .     D
N90    C233    1.336   .     D
H91    O232    0.963   .     S
H92    O23     0.966   1_545 S
H93    O488    0.963   .     S
H94    O191    0.959   .     S
O95    Zr173   2.242   .     S
O95    H190    0.962   .     S
O95    Zr266   2.242   .     S
O95    Zr491   2.242   .     S
O96    Zr175   2.063   .     S
O96    Zr358   2.058   .     S
O96    Zr538   2.056   .     S
H97    C243    1.082   .     S
H98    C348    1.082   .     S
H99    C197    1.080   .     S
C101   C357    1.394   .     S
C101   C392    1.378   .     D
C101   H510    1.079   .     S
C102   H373    1.081   .     S
C102   C481    1.376   .     S
C103   C304    1.382   .     D
C103   H343    1.079   .     S
C103   C539    1.395   1_565 S
C104   C178    1.393   .     S
C104   C258    1.378   .     D
O105   H399    1.017   .     S
O105   H400    0.968   1_556 S
O106   C321    1.273   .     S
O106   Zr491   2.230   .     S
O107   C177    1.270   .     D
O107   Zr448   2.213   .     S
O108   Zr223   2.317   .     S
O108   H340    1.018   .     S
O108   H341    0.969   .     S
H109   O429    1.017   .     S
H110   O429    0.970   .     S
H111   C482    1.080   .     S
H112   C424    1.082   .     S
H113   C526    1.080   .     S
C115   H209    1.083   .     S
C115   C288    1.376   .     D
C115   C447    1.393   .     S
C116   C242    1.380   .     S
C116   H297    1.082   .     S
C116   C363    1.394   .     D
C117   C380    1.380   .     D
C117   C404    1.397   1_565 S
C117   H419    1.081   .     S
C118   C316    1.395   1_554 D
C118   C469    1.378   .     S
O119   H188    0.962   .     S
O120   Zr266   2.223   .     S
O120   C456    1.266   .     S
O121   C270    1.268   .     D
O121   Zr448   2.237   .     S
O122   H282    0.961   .     S
H123   O246    1.013   .     S
H124   O246    0.969   1_554 S
Zr125  O182    2.092   .     S
Zr125  O292    2.235   .     S
Zr125  O320    2.082   .     S
Zr125  O396    2.224   .     S
C126   C346    1.390   .     S
C126   C422    1.392   .     D
C126   C495    1.481   .     S
Zr127  O184    2.301   .     S
Zr127  O338    2.203   .     S
Zr127  O352    2.243   .     S
Zr127  O457    2.288   .     S
Zr127  O519    2.315   .     S
C128   C199    1.396   .     D
C128   C258    1.397   1_455 S
C128   C458    1.469   .     S
C129   O155    1.268   .     D
C129   C312    1.482   .     S
C129   O397    1.267   .     S
C130   C152    1.394   1_556 S
C130   C366    1.485   .     S
C130   C484    1.395   1_565 D
C131   N364    1.333   .     S
C131   N409    1.335   .     D
C132   C437    1.397   .     S
N133   C272    1.333   .     S
N133   C452    1.337   .     D
O134   Zr173   2.093   .     S
O134   Zr491   2.085   .     S
C135   O351    1.266   .     D
C135   C451    1.482   .     S
C135   O472    1.273   .     S
O136   Zr175   2.314   .     S
O136   Zr358   2.290   .     S
O136   H415    0.963   .     S
C137   N186    1.333   .     D
C137   C359    1.468   .     S
C137   N414    1.338   .     S
N138   C185    1.338   .     D
N138   C278    1.336   .     S
H139   O277    0.962   .     S
H140   O167    0.964   1_554 S
H141   O398    0.960   .     S
O143   Zr221   2.242   .     S
O143   Zr401   2.242   .     S
O144   Zr313   2.056   .     S
O144   Zr448   2.054   .     S
H145   C333    1.081   .     S
H146   C258    1.078   .     S
H147   C287    1.083   .     S
C149   C267    1.392   .     S
C149   H375    1.082   .     S
C149   C527    1.378   .     D
C150   C436    1.378   .     S
C150   H508    1.078   .     S
C151   C214    1.378   .     S
C151   H253    1.079   .     S
C151   C404    1.398   1_655 D
C152   C130    1.394   1_554 S
C152   C348    1.380   .     D
O153   H534    1.015   .     S
O153   H535    0.966   .     S
O154   C231    1.270   .     D
O154   Zr446   2.234   .     S
O155   Zr493   2.217   .     S
O156   H250    1.015   .     S
O156   H251    0.969   .     S
O156   Zr313   2.318   .     S
H157   O474    1.013   .     S
H158   O474    0.971   .     S
H159   C437    1.082   .     S
H160   C469    1.079   .     S
H161   C391    1.082   .     S
C163   C198    1.376   .     D
C163   H299    1.078   .     S
C163   C492    1.397   .     S
C164   H207    1.083   .     S
C164   C273    1.398   .     D
C164   C332    1.378   .     S
C165   H464    1.082   .     S
C165   C515    1.380   .     S
C165   C539    1.397   1_655 D
C166   C226    1.395   .     S
C166   C424    1.378   .     D
O167   H140    0.964   1_556 S
O168   Zr356   2.220   .     S
O168   C501    1.266   .     D
O169   C360    1.270   .     D
O169   Zr493   2.219   .     S
O170   H372    0.962   .     S
H171   O336    1.015   .     S
H172   O336    0.964   .     S
Zr173  O202    2.228   .     S
Zr173  O230    2.085   .     S
Zr173  O531    2.223   .     S
C174   C256    1.394   .     D
C174   C450    1.483   .     S
C174   C467    1.393   .     S
Zr175  O248    2.217   .     S
Zr175  O262    2.215   .     S
Zr175  O384    2.310   .     S
Zr175  O502    2.279   .     S
C176   C289    1.398   1_554 D
C176   C348    1.397   1_545 S
C176   C503    1.468   .     S
C177   C222    1.477   .     S
C177   O532    1.270   .     S
C178   C276    1.482   .     S
C178   C439    1.395   1_655 D
C179   N274    1.338   .     S
C179   N544    1.335   .     D
C180   C482    1.400   .     S
N181   C362    1.339   .     D
N181   C497    1.339   .     S
O182   Zr446   2.076   .     S
C183   O261    1.266   .     D
C183   O427    1.273   .     S
C183   C496    1.482   .     S
O184   Zr268   2.287   .     S
O184   H550    0.962   .     S
C185   C269    1.469   .     S
C185   N549    1.336   .     S
N186   C368    1.338   .     S
H187   O367    0.959   .     S
H189   O533    0.965   .     S
O191   Zr311   2.238   .     S
O191   Zr536   2.244   .     S
O192   Zr223   2.056   .     S
O192   Zr493   2.059   .     S
H193   C468    1.081   .     S
H194   C393    1.078   .     S
H195   C512    1.083   .     S
H196   C349    1.082   .     S
C197   C402    1.392   .     D
C198   C363    1.396   .     S
C199   H388    1.083   .     S
C199   C439    1.380   .     S
C200   C271    1.394   1_554 D
C200   H300    1.080   .     S
C200   C483    1.380   .     S
O201   H76     0.963   1_565 S
O201   Zr311   2.346   .     S
O202   C456    1.276   .     D
O203   C270    1.270   .     S
O204   H385    1.013   .     S
O204   H386    0.972   .     S
O204   Zr538   2.316   .     S
H210   C290    1.079   .     S
C211   C423    1.378   .     D
C211   H524    1.081   .     S
C212   C408    1.395   .     S
C212   H432    1.081   .     S
C212   C467    1.378   .     D
C214   H331    1.082   .     S
C214   C451    1.395   1_545 D
O215   H281    0.965   1_556 S
O215   Zr356   2.111   .     S
O216   Zr491   2.223   .     S
O217   C495    1.270   .     D
O218   Zr358   2.122   .     S
O218   H507    0.960   .     S
H219   O471    1.012   .     S
H220   O471    0.969   1_545 S
Zr221  O275    2.091   .     S
Zr221  O291    2.362   .     S
Zr221  O322    2.258   .     S
Zr221  O350    2.107   .     S
Zr221  O427    2.230   .     S
Zr221  O455    2.085   .     S
C222   C391    1.394   .     D
Zr223  O277    2.309   .     S
Zr223  O320    2.068   .     S
Zr223  O353    2.121   .     S
Zr223  O383    2.215   .     S
Zr223  O397    2.237   .     S
C224   C483    1.397   1_455 D
C224   C514    1.398   1_554 S
C225   O248    1.268   .     S
C225   C447    1.480   .     S
C226   C245    1.394   1_565 D
C226   C411    1.482   .     S
C227   C363    1.469   .     S
C227   N409    1.336   .     S
C228   C333    1.393   .     D
C228   C362    1.465   .     S
N229   C497    1.337   .     D
O230   Zr266   2.090   .     S
O230   Zr313   2.067   .     S
C231   O396    1.269   .     S
O232   Zr268   2.312   .     S
O232   Zr311   2.259   .     S
O232   Zr403   2.281   .     S
C233   N279    1.337   .     S
C233   C404    1.469   .     S
N234   C278    1.334   .     D
N234   C503    1.338   .     S
H235   O502    0.960   .     S
H236   O260    0.965   1_545 S
H238   C378    1.079   .     S
H239   C483    1.081   .     S
H240   C422    1.083   .     S
H241   C304    1.082   .     S
C242   C492    1.393   .     D
C243   C318    1.395   .     S
C244   C80     1.395   1_655 D
C244   H478    1.076   .     S
C244   C529    1.382   .     S
C245   C226    1.394   1_545 D
C245   H345    1.083   .     S
C245   C393    1.380   .     S
O246   H124    0.969   1_556 S
O246   Zr356   2.360   .     S
O247   C546    1.273   .     S
O249   Zr448   2.314   .     S
O249   H475    1.017   .     S
O249   H476    0.970   .     S
H255   C335    1.080   .     S
C256   H434    1.083   .     S
C256   C513    1.378   .     S
C257   C377    1.378   .     S
C257   C498    1.394   .     D
C257   H522    1.082   .     S
C258   C128    1.397   1_655 S
C259   H286    1.082   .     S
C259   C541    1.395   1_554 S
O260   H236    0.965   1_565 S
O260   Zr311   2.112   .     S
O261   Zr401   2.220   .     S
O262   C405    1.270   .     D
O263   Zr313   2.122   .     S
O263   H417    0.963   .     S
H264   O381    1.012   .     S
H265   O381    0.967   1_554 S
Zr266  O305    2.109   .     S
Zr266  O336    2.363   .     S
Zr266  O367    2.258   .     S
Zr266  O517    2.230   .     S
Zr266  O545    2.088   .     S
C267   C481    1.393   .     D
Zr268  O308    2.125   .     S
Zr268  O365    2.066   .     S
Zr268  O473    2.208   .     S
Zr268  O487    2.239   .     S
C269   C393    1.400   .     D
C269   C424    1.395   1_545 S
C270   C537    1.482   .     S
C271   C22     1.395   1_655 S
C271   C200    1.394   1_556 D
C271   C501    1.482   .     S
C272   C318    1.468   .     S
C272   N499    1.338   .     D
C273   C288    1.396   .     S
C273   C317    1.463   .     S
N274   C407    1.336   .     D
O275   Zr358   2.068   .     S
C276   O486    1.269   .     S
O277   Zr356   2.258   .     S
O277   Zr493   2.279   .     S
C278   C494    1.469   .     S
N279   C413    1.337   .     D
H280   O412    0.962   .     S
H281   O215    0.965   1_554 S
H283   C423    1.080   .     S
H284   C528    1.082   .     S
H285   C377    1.081   .     S
C287   C537    1.392   .     S
C289   C176    1.398   1_556 D
C289   C484    1.378   .     S
C289   H523    1.079   .     S
C290   C361    1.396   .     S
C290   C438    1.378   .     D
O291   H28     0.968   1_655 S
O292   C501    1.273   .     S
O293   C360    1.268   .     S
O294   Zr403   2.308   .     S
O294   H520    1.015   .     S
O294   H521    0.972   .     S
C301   H389    1.082   .     S
C301   C468    1.377   .     D
C302   C422    1.379   .     S
C302   H477    1.079   .     S
C302   C543    1.400   .     D
C303   C32     1.397   1_556 D
C304   C496    1.395   1_455 S
O305   H371    0.964   .     S
O306   Zr446   2.217   .     S
O307   C450    1.269   .     D
O308   H462    0.966   .     S
H309   O426    1.015   .     S
H310   O426    0.967   1_455 S
Zr311  O365    2.090   .     S
Zr311  O472    2.233   .     S
Zr311  O500    2.087   .     S
C312   C526    1.391   .     D
Zr313  O367    2.302   .     S
Zr313  O518    2.201   .     S
Zr313  O532    2.239   .     S
C314   C379    1.396   .     D
C314   C438    1.397   1_545 S
C315   O338    1.268   .     S
C315   C492    1.481   .     S
C316   C118    1.395   1_556 D
C316   C335    1.394   1_655 S
C316   C546    1.482   .     S
C317   N544    1.337   .     S
N319   C452    1.335   .     S
O320   Zr356   2.089   .     S
C321   O531    1.266   .     D
O322   Zr358   2.301   .     S
O322   Zr538   2.290   .     S
C323   N369    1.337   .     S
C323   C539    1.468   .     S
N324   C368    1.337   .     D
N324   C458    1.336   .     S
H325   O457    0.962   .     S
H326   O350    0.967   1_455 S
H328   C513    1.082   .     S
H329   C438    1.078   .     S
H330   C467    1.082   .     S
C332   C447    1.391   .     D
C334   C32     1.396   1_565 S
C334   C394    1.380   .     D
C334   H433    1.080   .     S
C335   C316    1.394   1_455 S
C335   C528    1.380   .     D
O337   C411    1.270   .     S
O339   H430    1.016   .     S
O339   H431    0.970   .     S
O339   Zr493   2.313   .     S
C346   C378    1.379   .     D
C346   H479    1.081   .     S
C347   H387    1.081   .     S
C347   C453    1.397   .     D
C347   C512    1.376   .     S
C348   C176    1.397   1_565 S
C349   C406    1.395   .     D
O350   H326    0.967   1_655 S
O351   Zr536   2.224   .     S
O352   C540    1.267   .     D
O353   H552    0.963   .     S
H354   O516    1.015   .     S
H355   O516    0.966   .     S
Zr356  O382    2.230   .     S
Zr356  O410    2.088   .     S
C357   C436    1.393   .     D
Zr358  O428    2.201   .     S
Zr358  O442    2.238   .     S
C359   C469    1.398   1_455 D
C359   C528    1.397   1_554 S
C360   C402    1.481   .     S
C361   C70     1.395   1_565 D
C361   C456    1.482   .     S
C362   N454    1.333   .     S
N364   C542    1.332   .     D
C366   O441    1.266   .     S
O367   Zr448   2.294   .     S
C368   C449    1.468   .     S
N369   C548    1.341   .     D
H370   O547    0.966   .     S
H376   C529    1.081   .     S
C378   C543    1.395   .     S
C380   C451    1.394   1_455 S
C380   H480    1.081   .     S
O381   H265    0.967   1_556 S
O381   Zr491   2.362   .     S
O383   C450    1.270   .     S
H390   C470    1.084   .     S
C394   C82     1.395   1_554 S
C394   H511    1.082   .     S
O395   H461    0.966   1_655 S
O395   Zr536   2.107   .     S
O398   Zr538   2.121   .     S
H400   O105    0.968   1_554 S
Zr401  O455    2.090   .     S
Zr401  O471    2.360   .     S
Zr401  O502    2.258   .     S
Zr401  O530    2.109   .     S
Zr403  O457    2.313   .     S
Zr403  O500    2.065   .     S
Zr403  O533    2.121   .     S
C404   C151    1.398   1_455 D
C404   C117    1.397   1_545 S
C405   O428    1.268   .     S
C406   C425    1.394   1_556 S
C407   C543    1.464   .     S
C408   C513    1.394   .     D
C408   C542    1.468   .     S
O410   Zr446   2.088   .     S
O410   Zr493   2.065   .     S
O412   Zr448   2.306   .     S
O412   Zr491   2.258   .     S
C413   N459    1.337   .     S
N414   C458    1.334   .     D
H416   O440    0.962   1_554 S
H421   C484    1.082   .     S
C423   C498    1.397   .     S
C424   C269    1.395   1_565 S
C425   C406    1.394   1_554 S
C425   H525    1.080   .     S
O426   H310    0.967   1_655 S
O426   Zr536   2.357   .     S
H435   C515    1.080   .     S
C438   C314    1.397   1_565 S
C439   C178    1.395   1_455 D
C439   H466    1.082   .     S
O440   H416    0.962   1_556 S
O440   Zr491   2.109   .     S
O443   Zr493   2.125   .     S
H445   O9      0.968   1_455 S
Zr446  O485    2.109   .     S
Zr446  O516    2.354   .     S
Zr446  O547    2.263   .     S
Zr448  O488    2.123   .     S
Zr448  O545    2.068   .     S
C449   C55     1.395   1_554 D
C451   C214    1.395   1_565 D
C451   C380    1.394   1_655 S
C452   C498    1.467   .     S
C453   C468    1.397   .     S
C453   C497    1.466   .     S
O455   Zr538   2.069   .     S
O457   Zr536   2.257   .     S
H461   O395    0.966   1_455 S
C469   C359    1.398   1_655 D
C470   C541    1.393   .     D
O471   H220    0.969   1_565 S
O473   C540    1.271   .     S
C483   C224    1.397   1_655 D
C484   C130    1.395   1_545 D
O485   H551    0.966   .     S
H490   O57     0.967   1_545 S
Zr491  O545    2.089   .     S
Zr493  O547    2.312   .     S
C494   C69     1.397   1_554 D
C495   O518    1.268   .     S
C496   C304    1.395   1_655 S
C496   C515    1.394   1_565 D
O500   Zr536   2.088   .     S
O502   Zr538   2.309   .     S
C503   N549    1.333   .     D
N504   C548    1.333   .     S
H506   O530    0.964   1_545 S
C514   C224    1.398   1_556 S
C515   C496    1.394   1_545 D
C528   C359    1.397   1_556 S
O530   H506    0.964   1_565 S
C539   C165    1.397   1_455 D
C539   C103    1.395   1_545 S
C541   C259    1.395   1_556 S
